
---------- Begin Simulation Statistics ----------
sim_seconds                                  0.086226                       # Number of seconds simulated
sim_ticks                                 86226056000                       # Number of ticks simulated
final_tick                                86226056000                       # Number of ticks from beginning of simulation (restored from checkpoints and never reset)
sim_freq                                 1000000000000                       # Frequency of simulated ticks
host_inst_rate                                 343789                       # Simulator instruction rate (inst/s)
host_op_rate                                   665138                       # Simulator op (including micro ops) rate (op/s)
host_tick_rate                              326726086                       # Simulator tick rate (ticks/s)
host_mem_usage                                1640008                       # Number of bytes of host memory used
host_seconds                                   263.91                       # Real time elapsed on the host
sim_insts                                    90729030                       # Number of instructions simulated
sim_ops                                     175536058                       # Number of ops (including micro ops) simulated
system.voltage_domain.voltage                       1                       # Voltage in Volts
system.clk_domain.clock                          1000                       # Clock period in ticks
system.mem_ctrls.pwrStateResidencyTicks::UNDEFINED  86226056000                       # Cumulative time (in ticks) in various power states
system.mem_ctrls.bytes_read::ruby.dir_cntrl0     16383424                       # Number of bytes read from this memory
system.mem_ctrls.bytes_read::total           16383424                       # Number of bytes read from this memory
system.mem_ctrls.bytes_written::ruby.dir_cntrl0       319488                       # Number of bytes written to this memory
system.mem_ctrls.bytes_written::total          319488                       # Number of bytes written to this memory
system.mem_ctrls.num_reads::ruby.dir_cntrl0       255991                       # Number of read requests responded to by this memory
system.mem_ctrls.num_reads::total              255991                       # Number of read requests responded to by this memory
system.mem_ctrls.num_writes::ruby.dir_cntrl0         4992                       # Number of write requests responded to by this memory
system.mem_ctrls.num_writes::total               4992                       # Number of write requests responded to by this memory
system.mem_ctrls.bw_read::ruby.dir_cntrl0    190005490                       # Total read bandwidth from this memory (bytes/s)
system.mem_ctrls.bw_read::total             190005490                       # Total read bandwidth from this memory (bytes/s)
system.mem_ctrls.bw_write::ruby.dir_cntrl0      3705237                       # Write bandwidth from this memory (bytes/s)
system.mem_ctrls.bw_write::total              3705237                       # Write bandwidth from this memory (bytes/s)
system.mem_ctrls.bw_total::ruby.dir_cntrl0    193710727                       # Total bandwidth to/from this memory (bytes/s)
system.mem_ctrls.bw_total::total            193710727                       # Total bandwidth to/from this memory (bytes/s)
system.mem_ctrls.readReqs                      255991                       # Number of read requests accepted
system.mem_ctrls.writeReqs                       4992                       # Number of write requests accepted
system.mem_ctrls.readBursts                    255991                       # Number of DRAM read bursts, including those serviced by the write queue
system.mem_ctrls.writeBursts                     4992                       # Number of DRAM write bursts, including those merged in the write queue
system.mem_ctrls.bytesReadDRAM               16382848                       # Total number of bytes read from DRAM
system.mem_ctrls.bytesReadWrQ                     576                       # Total number of bytes read from write queue
system.mem_ctrls.bytesWritten                  318272                       # Total number of bytes written to DRAM
system.mem_ctrls.bytesReadSys                16383424                       # Total read bytes from the system interface side
system.mem_ctrls.bytesWrittenSys               319488                       # Total written bytes from the system interface side
system.mem_ctrls.servicedByWrQ                      9                       # Number of DRAM read bursts serviced by the write queue
system.mem_ctrls.mergedWrBursts                     0                       # Number of DRAM write bursts merged with an existing one
system.mem_ctrls.neitherReadNorWriteReqs            0                       # Number of requests that are neither read nor write
system.mem_ctrls.perBankRdBursts::0             16041                       # Per bank write bursts
system.mem_ctrls.perBankRdBursts::1             16075                       # Per bank write bursts
system.mem_ctrls.perBankRdBursts::2             16026                       # Per bank write bursts
system.mem_ctrls.perBankRdBursts::3             16054                       # Per bank write bursts
system.mem_ctrls.perBankRdBursts::4             16174                       # Per bank write bursts
system.mem_ctrls.perBankRdBursts::5             15878                       # Per bank write bursts
system.mem_ctrls.perBankRdBursts::6             15949                       # Per bank write bursts
system.mem_ctrls.perBankRdBursts::7             15898                       # Per bank write bursts
system.mem_ctrls.perBankRdBursts::8             16093                       # Per bank write bursts
system.mem_ctrls.perBankRdBursts::9             15852                       # Per bank write bursts
system.mem_ctrls.perBankRdBursts::10            16037                       # Per bank write bursts
system.mem_ctrls.perBankRdBursts::11            16041                       # Per bank write bursts
system.mem_ctrls.perBankRdBursts::12            15951                       # Per bank write bursts
system.mem_ctrls.perBankRdBursts::13            16066                       # Per bank write bursts
system.mem_ctrls.perBankRdBursts::14            15830                       # Per bank write bursts
system.mem_ctrls.perBankRdBursts::15            16017                       # Per bank write bursts
system.mem_ctrls.perBankWrBursts::0               304                       # Per bank write bursts
system.mem_ctrls.perBankWrBursts::1               314                       # Per bank write bursts
system.mem_ctrls.perBankWrBursts::2               317                       # Per bank write bursts
system.mem_ctrls.perBankWrBursts::3               321                       # Per bank write bursts
system.mem_ctrls.perBankWrBursts::4               329                       # Per bank write bursts
system.mem_ctrls.perBankWrBursts::5               289                       # Per bank write bursts
system.mem_ctrls.perBankWrBursts::6               300                       # Per bank write bursts
system.mem_ctrls.perBankWrBursts::7               292                       # Per bank write bursts
system.mem_ctrls.perBankWrBursts::8               327                       # Per bank write bursts
system.mem_ctrls.perBankWrBursts::9               294                       # Per bank write bursts
system.mem_ctrls.perBankWrBursts::10              323                       # Per bank write bursts
system.mem_ctrls.perBankWrBursts::11              331                       # Per bank write bursts
system.mem_ctrls.perBankWrBursts::12              326                       # Per bank write bursts
system.mem_ctrls.perBankWrBursts::13              299                       # Per bank write bursts
system.mem_ctrls.perBankWrBursts::14              309                       # Per bank write bursts
system.mem_ctrls.perBankWrBursts::15              298                       # Per bank write bursts
system.mem_ctrls.numRdRetry                         0                       # Number of times read queue was full causing retry
system.mem_ctrls.numWrRetry                         0                       # Number of times write queue was full causing retry
system.mem_ctrls.totGap                   86225929500                       # Total gap between requests
system.mem_ctrls.readPktSize::0                     0                       # Read request sizes (log2)
system.mem_ctrls.readPktSize::1                     0                       # Read request sizes (log2)
system.mem_ctrls.readPktSize::2                     0                       # Read request sizes (log2)
system.mem_ctrls.readPktSize::3                     0                       # Read request sizes (log2)
system.mem_ctrls.readPktSize::4                     0                       # Read request sizes (log2)
system.mem_ctrls.readPktSize::5                     0                       # Read request sizes (log2)
system.mem_ctrls.readPktSize::6                255991                       # Read request sizes (log2)
system.mem_ctrls.writePktSize::0                    0                       # Write request sizes (log2)
system.mem_ctrls.writePktSize::1                    0                       # Write request sizes (log2)
system.mem_ctrls.writePktSize::2                    0                       # Write request sizes (log2)
system.mem_ctrls.writePktSize::3                    0                       # Write request sizes (log2)
system.mem_ctrls.writePktSize::4                    0                       # Write request sizes (log2)
system.mem_ctrls.writePktSize::5                    0                       # Write request sizes (log2)
system.mem_ctrls.writePktSize::6                 4992                       # Write request sizes (log2)
system.mem_ctrls.rdQLenPdf::0                  255905                       # What read queue length does an incoming req see
system.mem_ctrls.rdQLenPdf::1                      69                       # What read queue length does an incoming req see
system.mem_ctrls.rdQLenPdf::2                       4                       # What read queue length does an incoming req see
system.mem_ctrls.rdQLenPdf::3                       4                       # What read queue length does an incoming req see
system.mem_ctrls.rdQLenPdf::4                       0                       # What read queue length does an incoming req see
system.mem_ctrls.rdQLenPdf::5                       0                       # What read queue length does an incoming req see
system.mem_ctrls.rdQLenPdf::6                       0                       # What read queue length does an incoming req see
system.mem_ctrls.rdQLenPdf::7                       0                       # What read queue length does an incoming req see
system.mem_ctrls.rdQLenPdf::8                       0                       # What read queue length does an incoming req see
system.mem_ctrls.rdQLenPdf::9                       0                       # What read queue length does an incoming req see
system.mem_ctrls.rdQLenPdf::10                      0                       # What read queue length does an incoming req see
system.mem_ctrls.rdQLenPdf::11                      0                       # What read queue length does an incoming req see
system.mem_ctrls.rdQLenPdf::12                      0                       # What read queue length does an incoming req see
system.mem_ctrls.rdQLenPdf::13                      0                       # What read queue length does an incoming req see
system.mem_ctrls.rdQLenPdf::14                      0                       # What read queue length does an incoming req see
system.mem_ctrls.rdQLenPdf::15                      0                       # What read queue length does an incoming req see
system.mem_ctrls.rdQLenPdf::16                      0                       # What read queue length does an incoming req see
system.mem_ctrls.rdQLenPdf::17                      0                       # What read queue length does an incoming req see
system.mem_ctrls.rdQLenPdf::18                      0                       # What read queue length does an incoming req see
system.mem_ctrls.rdQLenPdf::19                      0                       # What read queue length does an incoming req see
system.mem_ctrls.rdQLenPdf::20                      0                       # What read queue length does an incoming req see
system.mem_ctrls.rdQLenPdf::21                      0                       # What read queue length does an incoming req see
system.mem_ctrls.rdQLenPdf::22                      0                       # What read queue length does an incoming req see
system.mem_ctrls.rdQLenPdf::23                      0                       # What read queue length does an incoming req see
system.mem_ctrls.rdQLenPdf::24                      0                       # What read queue length does an incoming req see
system.mem_ctrls.rdQLenPdf::25                      0                       # What read queue length does an incoming req see
system.mem_ctrls.rdQLenPdf::26                      0                       # What read queue length does an incoming req see
system.mem_ctrls.rdQLenPdf::27                      0                       # What read queue length does an incoming req see
system.mem_ctrls.rdQLenPdf::28                      0                       # What read queue length does an incoming req see
system.mem_ctrls.rdQLenPdf::29                      0                       # What read queue length does an incoming req see
system.mem_ctrls.rdQLenPdf::30                      0                       # What read queue length does an incoming req see
system.mem_ctrls.rdQLenPdf::31                      0                       # What read queue length does an incoming req see
system.mem_ctrls.wrQLenPdf::0                       1                       # What write queue length does an incoming req see
system.mem_ctrls.wrQLenPdf::1                       1                       # What write queue length does an incoming req see
system.mem_ctrls.wrQLenPdf::2                       1                       # What write queue length does an incoming req see
system.mem_ctrls.wrQLenPdf::3                       1                       # What write queue length does an incoming req see
system.mem_ctrls.wrQLenPdf::4                       1                       # What write queue length does an incoming req see
system.mem_ctrls.wrQLenPdf::5                       1                       # What write queue length does an incoming req see
system.mem_ctrls.wrQLenPdf::6                       1                       # What write queue length does an incoming req see
system.mem_ctrls.wrQLenPdf::7                       1                       # What write queue length does an incoming req see
system.mem_ctrls.wrQLenPdf::8                       1                       # What write queue length does an incoming req see
system.mem_ctrls.wrQLenPdf::9                       1                       # What write queue length does an incoming req see
system.mem_ctrls.wrQLenPdf::10                      1                       # What write queue length does an incoming req see
system.mem_ctrls.wrQLenPdf::11                      1                       # What write queue length does an incoming req see
system.mem_ctrls.wrQLenPdf::12                      1                       # What write queue length does an incoming req see
system.mem_ctrls.wrQLenPdf::13                      1                       # What write queue length does an incoming req see
system.mem_ctrls.wrQLenPdf::14                      1                       # What write queue length does an incoming req see
system.mem_ctrls.wrQLenPdf::15                    128                       # What write queue length does an incoming req see
system.mem_ctrls.wrQLenPdf::16                    131                       # What write queue length does an incoming req see
system.mem_ctrls.wrQLenPdf::17                    257                       # What write queue length does an incoming req see
system.mem_ctrls.wrQLenPdf::18                    301                       # What write queue length does an incoming req see
system.mem_ctrls.wrQLenPdf::19                    299                       # What write queue length does an incoming req see
system.mem_ctrls.wrQLenPdf::20                    296                       # What write queue length does an incoming req see
system.mem_ctrls.wrQLenPdf::21                    299                       # What write queue length does an incoming req see
system.mem_ctrls.wrQLenPdf::22                    295                       # What write queue length does an incoming req see
system.mem_ctrls.wrQLenPdf::23                    295                       # What write queue length does an incoming req see
system.mem_ctrls.wrQLenPdf::24                    294                       # What write queue length does an incoming req see
system.mem_ctrls.wrQLenPdf::25                    294                       # What write queue length does an incoming req see
system.mem_ctrls.wrQLenPdf::26                    294                       # What write queue length does an incoming req see
system.mem_ctrls.wrQLenPdf::27                    295                       # What write queue length does an incoming req see
system.mem_ctrls.wrQLenPdf::28                    294                       # What write queue length does an incoming req see
system.mem_ctrls.wrQLenPdf::29                    294                       # What write queue length does an incoming req see
system.mem_ctrls.wrQLenPdf::30                    295                       # What write queue length does an incoming req see
system.mem_ctrls.wrQLenPdf::31                    294                       # What write queue length does an incoming req see
system.mem_ctrls.wrQLenPdf::32                    294                       # What write queue length does an incoming req see
system.mem_ctrls.wrQLenPdf::33                     22                       # What write queue length does an incoming req see
system.mem_ctrls.wrQLenPdf::34                      4                       # What write queue length does an incoming req see
system.mem_ctrls.wrQLenPdf::35                      1                       # What write queue length does an incoming req see
system.mem_ctrls.wrQLenPdf::36                      1                       # What write queue length does an incoming req see
system.mem_ctrls.wrQLenPdf::37                      0                       # What write queue length does an incoming req see
system.mem_ctrls.wrQLenPdf::38                      0                       # What write queue length does an incoming req see
system.mem_ctrls.wrQLenPdf::39                      0                       # What write queue length does an incoming req see
system.mem_ctrls.wrQLenPdf::40                      0                       # What write queue length does an incoming req see
system.mem_ctrls.wrQLenPdf::41                      0                       # What write queue length does an incoming req see
system.mem_ctrls.wrQLenPdf::42                      0                       # What write queue length does an incoming req see
system.mem_ctrls.wrQLenPdf::43                      0                       # What write queue length does an incoming req see
system.mem_ctrls.wrQLenPdf::44                      0                       # What write queue length does an incoming req see
system.mem_ctrls.wrQLenPdf::45                      0                       # What write queue length does an incoming req see
system.mem_ctrls.wrQLenPdf::46                      0                       # What write queue length does an incoming req see
system.mem_ctrls.wrQLenPdf::47                      0                       # What write queue length does an incoming req see
system.mem_ctrls.wrQLenPdf::48                      0                       # What write queue length does an incoming req see
system.mem_ctrls.wrQLenPdf::49                      0                       # What write queue length does an incoming req see
system.mem_ctrls.wrQLenPdf::50                      0                       # What write queue length does an incoming req see
system.mem_ctrls.wrQLenPdf::51                      0                       # What write queue length does an incoming req see
system.mem_ctrls.wrQLenPdf::52                      0                       # What write queue length does an incoming req see
system.mem_ctrls.wrQLenPdf::53                      0                       # What write queue length does an incoming req see
system.mem_ctrls.wrQLenPdf::54                      0                       # What write queue length does an incoming req see
system.mem_ctrls.wrQLenPdf::55                      0                       # What write queue length does an incoming req see
system.mem_ctrls.wrQLenPdf::56                      0                       # What write queue length does an incoming req see
system.mem_ctrls.wrQLenPdf::57                      0                       # What write queue length does an incoming req see
system.mem_ctrls.wrQLenPdf::58                      0                       # What write queue length does an incoming req see
system.mem_ctrls.wrQLenPdf::59                      0                       # What write queue length does an incoming req see
system.mem_ctrls.wrQLenPdf::60                      0                       # What write queue length does an incoming req see
system.mem_ctrls.wrQLenPdf::61                      0                       # What write queue length does an incoming req see
system.mem_ctrls.wrQLenPdf::62                      0                       # What write queue length does an incoming req see
system.mem_ctrls.wrQLenPdf::63                      0                       # What write queue length does an incoming req see
system.mem_ctrls.bytesPerActivate::samples        34315                       # Bytes accessed per row activation
system.mem_ctrls.bytesPerActivate::mean    486.679761                       # Bytes accessed per row activation
system.mem_ctrls.bytesPerActivate::gmean   276.704282                       # Bytes accessed per row activation
system.mem_ctrls.bytesPerActivate::stdev   417.277008                       # Bytes accessed per row activation
system.mem_ctrls.bytesPerActivate::0-127        10643     31.02%     31.02% # Bytes accessed per row activation
system.mem_ctrls.bytesPerActivate::128-255         4743     13.82%     44.84% # Bytes accessed per row activation
system.mem_ctrls.bytesPerActivate::256-383         2218      6.46%     51.30% # Bytes accessed per row activation
system.mem_ctrls.bytesPerActivate::384-511         1189      3.46%     54.77% # Bytes accessed per row activation
system.mem_ctrls.bytesPerActivate::512-639         2658      7.75%     62.51% # Bytes accessed per row activation
system.mem_ctrls.bytesPerActivate::640-767          658      1.92%     64.43% # Bytes accessed per row activation
system.mem_ctrls.bytesPerActivate::768-895          391      1.14%     65.57% # Bytes accessed per row activation
system.mem_ctrls.bytesPerActivate::896-1023          512      1.49%     67.06% # Bytes accessed per row activation
system.mem_ctrls.bytesPerActivate::1024-1151        11303     32.94%    100.00% # Bytes accessed per row activation
system.mem_ctrls.bytesPerActivate::total        34315                       # Bytes accessed per row activation
system.mem_ctrls.rdPerTurnAround::samples          294                       # Reads before turning the bus around for writes
system.mem_ctrls.rdPerTurnAround::mean     870.547619                       # Reads before turning the bus around for writes
system.mem_ctrls.rdPerTurnAround::stdev  10873.644089                       # Reads before turning the bus around for writes
system.mem_ctrls.rdPerTurnAround::0-8191          293     99.66%     99.66% # Reads before turning the bus around for writes
system.mem_ctrls.rdPerTurnAround::180224-188415            1      0.34%    100.00% # Reads before turning the bus around for writes
system.mem_ctrls.rdPerTurnAround::total           294                       # Reads before turning the bus around for writes
system.mem_ctrls.wrPerTurnAround::samples          294                       # Writes before turning the bus around for reads
system.mem_ctrls.wrPerTurnAround::mean      16.914966                       # Writes before turning the bus around for reads
system.mem_ctrls.wrPerTurnAround::gmean     16.882286                       # Writes before turning the bus around for reads
system.mem_ctrls.wrPerTurnAround::stdev      1.062668                       # Writes before turning the bus around for reads
system.mem_ctrls.wrPerTurnAround::16              164     55.78%     55.78% # Writes before turning the bus around for reads
system.mem_ctrls.wrPerTurnAround::17                3      1.02%     56.80% # Writes before turning the bus around for reads
system.mem_ctrls.wrPerTurnAround::18              118     40.14%     96.94% # Writes before turning the bus around for reads
system.mem_ctrls.wrPerTurnAround::19                6      2.04%     98.98% # Writes before turning the bus around for reads
system.mem_ctrls.wrPerTurnAround::20                3      1.02%    100.00% # Writes before turning the bus around for reads
system.mem_ctrls.wrPerTurnAround::total           294                       # Writes before turning the bus around for reads
system.mem_ctrls.totQLat                   3468723000                       # Total ticks spent queuing
system.mem_ctrls.totMemAccLat              8268385500                       # Total ticks spent from burst creation until serviced by the DRAM
system.mem_ctrls.totBusLat                 1279910000                       # Total ticks spent in databus transfers
system.mem_ctrls.avgQLat                     13550.65                       # Average queueing delay per DRAM burst
system.mem_ctrls.avgBusLat                    5000.00                       # Average bus latency per DRAM burst
system.mem_ctrls.avgMemAccLat                32300.65                       # Average memory access latency per DRAM burst
system.mem_ctrls.avgRdBW                       190.00                       # Average DRAM read bandwidth in MiByte/s
system.mem_ctrls.avgWrBW                         3.69                       # Average achieved write bandwidth in MiByte/s
system.mem_ctrls.avgRdBWSys                    190.01                       # Average system read bandwidth in MiByte/s
system.mem_ctrls.avgWrBWSys                      3.71                       # Average system write bandwidth in MiByte/s
system.mem_ctrls.peakBW                      12800.00                       # Theoretical peak bandwidth in MiByte/s
system.mem_ctrls.busUtil                         1.51                       # Data bus utilization in percentage
system.mem_ctrls.busUtilRead                     1.48                       # Data bus utilization in percentage for reads
system.mem_ctrls.busUtilWrite                    0.03                       # Data bus utilization in percentage for writes
system.mem_ctrls.avgRdQLen                       1.00                       # Average read queue length when enqueuing
system.mem_ctrls.avgWrQLen                      11.72                       # Average write queue length when enqueuing
system.mem_ctrls.readRowHits                   226177                       # Number of row buffer hits during reads
system.mem_ctrls.writeRowHits                     458                       # Number of row buffer hits during writes
system.mem_ctrls.readRowHitRate                 88.36                       # Row buffer hit rate for reads
system.mem_ctrls.writeRowHitRate                 9.17                       # Row buffer hit rate for writes
system.mem_ctrls.avgGap                     330389.07                       # Average gap between requests
system.mem_ctrls.pageHitRate                    86.84                       # Row buffer hit rate, read and write combined
system.mem_ctrls_0.actEnergy                122600940                       # Energy for activate commands per rank (pJ)
system.mem_ctrls_0.preEnergy                 65144970                       # Energy for precharge commands per rank (pJ)
system.mem_ctrls_0.readEnergy               914598300                       # Energy for read commands per rank (pJ)
system.mem_ctrls_0.writeEnergy               12872520                       # Energy for write commands per rank (pJ)
system.mem_ctrls_0.refreshEnergy         2974857600.000000                       # Energy for refresh commands per rank (pJ)
system.mem_ctrls_0.actBackEnergy           2348759100                       # Energy for active background per rank (pJ)
system.mem_ctrls_0.preBackEnergy            151487040                       # Energy for precharge background per rank (pJ)
system.mem_ctrls_0.actPowerDownEnergy     11701781940                       # Energy for active power-down per rank (pJ)
system.mem_ctrls_0.prePowerDownEnergy      2552771520                       # Energy for precharge power-down per rank (pJ)
system.mem_ctrls_0.selfRefreshEnergy      11939862060                       # Energy for self refresh per rank (pJ)
system.mem_ctrls_0.totalEnergy            32786066880                       # Total energy per rank (pJ)
system.mem_ctrls_0.averagePower            380.233869                       # Core power per rank (mW)
system.mem_ctrls_0.totalIdleTime          80677896750                       # Total Idle time Per DRAM Rank
system.mem_ctrls_0.memoryStateTime::IDLE    213268500                       # Time in different power states
system.mem_ctrls_0.memoryStateTime::REF    1258400000                       # Time in different power states
system.mem_ctrls_0.memoryStateTime::SREF  48368143250                       # Time in different power states
system.mem_ctrls_0.memoryStateTime::PRE_PDN   6647792250                       # Time in different power states
system.mem_ctrls_0.memoryStateTime::ACT    4076452000                       # Time in different power states
system.mem_ctrls_0.memoryStateTime::ACT_PDN  25662000000                       # Time in different power states
system.mem_ctrls_1.actEnergy                122443860                       # Energy for activate commands per rank (pJ)
system.mem_ctrls_1.preEnergy                 65080455                       # Energy for precharge commands per rank (pJ)
system.mem_ctrls_1.readEnergy               913113180                       # Energy for read commands per rank (pJ)
system.mem_ctrls_1.writeEnergy               13086540                       # Energy for write commands per rank (pJ)
system.mem_ctrls_1.refreshEnergy         3001287120.000000                       # Energy for refresh commands per rank (pJ)
system.mem_ctrls_1.actBackEnergy           2371834410                       # Energy for active background per rank (pJ)
system.mem_ctrls_1.preBackEnergy            154018080                       # Energy for precharge background per rank (pJ)
system.mem_ctrls_1.actPowerDownEnergy     11703343740                       # Energy for active power-down per rank (pJ)
system.mem_ctrls_1.prePowerDownEnergy      2660111040                       # Energy for precharge power-down per rank (pJ)
system.mem_ctrls_1.selfRefreshEnergy      11868718620                       # Energy for self refresh per rank (pJ)
system.mem_ctrls_1.totalEnergy            32873708445                       # Total energy per rank (pJ)
system.mem_ctrls_1.averagePower            381.250285                       # Core power per rank (mW)
system.mem_ctrls_1.totalIdleTime          80621868750                       # Total Idle time Per DRAM Rank
system.mem_ctrls_1.memoryStateTime::IDLE    218457000                       # Time in different power states
system.mem_ctrls_1.memoryStateTime::REF    1269580000                       # Time in different power states
system.mem_ctrls_1.memoryStateTime::SREF  48029483000                       # Time in different power states
system.mem_ctrls_1.memoryStateTime::PRE_PDN   6927482750                       # Time in different power states
system.mem_ctrls_1.memoryStateTime::ACT    4115714500                       # Time in different power states
system.mem_ctrls_1.memoryStateTime::ACT_PDN  25665338750                       # Time in different power states
system.ruby.clk_domain.clock                      500                       # Clock period in ticks
system.ruby.phys_mem.pwrStateResidencyTicks::UNDEFINED  86226056000                       # Cumulative time (in ticks) in various power states
system.ruby.phys_mem.bytes_read::cpu0.workload.drivers.device.hsapp          384                       # Number of bytes read from this memory
system.ruby.phys_mem.bytes_read::cpu0.workload.drivers.device         1040                       # Number of bytes read from this memory
system.ruby.phys_mem.bytes_read::cpu0.inst    355648384                       # Number of bytes read from this memory
system.ruby.phys_mem.bytes_read::cpu0.data     74335551                       # Number of bytes read from this memory
system.ruby.phys_mem.bytes_read::cpu1.inst    613183992                       # Number of bytes read from this memory
system.ruby.phys_mem.bytes_read::cpu1.data    177352272                       # Number of bytes read from this memory
system.ruby.phys_mem.bytes_read::cpu2.CUs0.ComputeUnit         4416                       # Number of bytes read from this memory
system.ruby.phys_mem.bytes_read::total     1220526039                       # Number of bytes read from this memory
system.ruby.phys_mem.bytes_inst_read::cpu0.inst    355648384                       # Number of instructions bytes read from this memory
system.ruby.phys_mem.bytes_inst_read::cpu1.inst    613183992                       # Number of instructions bytes read from this memory
system.ruby.phys_mem.bytes_inst_read::cpu2.CUs0.ComputeUnit         3072                       # Number of instructions bytes read from this memory
system.ruby.phys_mem.bytes_inst_read::total    968835448                       # Number of instructions bytes read from this memory
system.ruby.phys_mem.bytes_written::cpu0.workload.drivers.device.hsapp           48                       # Number of bytes written to this memory
system.ruby.phys_mem.bytes_written::cpu0.workload.drivers.device           32                       # Number of bytes written to this memory
system.ruby.phys_mem.bytes_written::cpu0.data     32449396                       # Number of bytes written to this memory
system.ruby.phys_mem.bytes_written::cpu1.data     11963019                       # Number of bytes written to this memory
system.ruby.phys_mem.bytes_written::cpu2.CUs0.ComputeUnit           48                       # Number of bytes written to this memory
system.ruby.phys_mem.bytes_written::total     44412543                       # Number of bytes written to this memory
system.ruby.phys_mem.num_reads::cpu0.workload.drivers.device.hsapp            6                       # Number of read requests responded to by this memory
system.ruby.phys_mem.num_reads::cpu0.workload.drivers.device           20                       # Number of read requests responded to by this memory
system.ruby.phys_mem.num_reads::cpu0.inst     44456048                       # Number of read requests responded to by this memory
system.ruby.phys_mem.num_reads::cpu0.data     10083555                       # Number of read requests responded to by this memory
system.ruby.phys_mem.num_reads::cpu1.inst     76647999                       # Number of read requests responded to by this memory
system.ruby.phys_mem.num_reads::cpu1.data     24678290                       # Number of read requests responded to by this memory
system.ruby.phys_mem.num_reads::cpu2.CUs0.ComputeUnit          372                       # Number of read requests responded to by this memory
system.ruby.phys_mem.num_reads::total       155866290                       # Number of read requests responded to by this memory
system.ruby.phys_mem.num_writes::cpu0.workload.drivers.device.hsapp            6                       # Number of write requests responded to by this memory
system.ruby.phys_mem.num_writes::cpu0.workload.drivers.device            4                       # Number of write requests responded to by this memory
system.ruby.phys_mem.num_writes::cpu0.data      4222130                       # Number of write requests responded to by this memory
system.ruby.phys_mem.num_writes::cpu1.data      1495615                       # Number of write requests responded to by this memory
system.ruby.phys_mem.num_writes::cpu2.CUs0.ComputeUnit           12                       # Number of write requests responded to by this memory
system.ruby.phys_mem.num_writes::total        5717767                       # Number of write requests responded to by this memory
system.ruby.phys_mem.bw_read::cpu0.workload.drivers.device.hsapp         4453                       # Total read bandwidth from this memory (bytes/s)
system.ruby.phys_mem.bw_read::cpu0.workload.drivers.device        12061                       # Total read bandwidth from this memory (bytes/s)
system.ruby.phys_mem.bw_read::cpu0.inst    4124604563                       # Total read bandwidth from this memory (bytes/s)
system.ruby.phys_mem.bw_read::cpu0.data     862100790                       # Total read bandwidth from this memory (bytes/s)
system.ruby.phys_mem.bw_read::cpu1.inst    7111353812                       # Total read bandwidth from this memory (bytes/s)
system.ruby.phys_mem.bw_read::cpu1.data    2056829226                       # Total read bandwidth from this memory (bytes/s)
system.ruby.phys_mem.bw_read::cpu2.CUs0.ComputeUnit        51214                       # Total read bandwidth from this memory (bytes/s)
system.ruby.phys_mem.bw_read::total       14154956119                       # Total read bandwidth from this memory (bytes/s)
system.ruby.phys_mem.bw_inst_read::cpu0.inst   4124604563                       # Instruction read bandwidth from this memory (bytes/s)
system.ruby.phys_mem.bw_inst_read::cpu1.inst   7111353812                       # Instruction read bandwidth from this memory (bytes/s)
system.ruby.phys_mem.bw_inst_read::cpu2.CUs0.ComputeUnit        35627                       # Instruction read bandwidth from this memory (bytes/s)
system.ruby.phys_mem.bw_inst_read::total  11235994002                       # Instruction read bandwidth from this memory (bytes/s)
system.ruby.phys_mem.bw_write::cpu0.workload.drivers.device.hsapp          557                       # Write bandwidth from this memory (bytes/s)
system.ruby.phys_mem.bw_write::cpu0.workload.drivers.device          371                       # Write bandwidth from this memory (bytes/s)
system.ruby.phys_mem.bw_write::cpu0.data    376329355                       # Write bandwidth from this memory (bytes/s)
system.ruby.phys_mem.bw_write::cpu1.data    138740185                       # Write bandwidth from this memory (bytes/s)
system.ruby.phys_mem.bw_write::cpu2.CUs0.ComputeUnit          557                       # Write bandwidth from this memory (bytes/s)
system.ruby.phys_mem.bw_write::total        515071024                       # Write bandwidth from this memory (bytes/s)
system.ruby.phys_mem.bw_total::cpu0.workload.drivers.device.hsapp         5010                       # Total bandwidth to/from this memory (bytes/s)
system.ruby.phys_mem.bw_total::cpu0.workload.drivers.device        12432                       # Total bandwidth to/from this memory (bytes/s)
system.ruby.phys_mem.bw_total::cpu0.inst   4124604563                       # Total bandwidth to/from this memory (bytes/s)
system.ruby.phys_mem.bw_total::cpu0.data   1238430145                       # Total bandwidth to/from this memory (bytes/s)
system.ruby.phys_mem.bw_total::cpu1.inst   7111353812                       # Total bandwidth to/from this memory (bytes/s)
system.ruby.phys_mem.bw_total::cpu1.data   2195569411                       # Total bandwidth to/from this memory (bytes/s)
system.ruby.phys_mem.bw_total::cpu2.CUs0.ComputeUnit        51771                       # Total bandwidth to/from this memory (bytes/s)
system.ruby.phys_mem.bw_total::total      14670027144                       # Total bandwidth to/from this memory (bytes/s)
system.pwrStateResidencyTicks::UNDEFINED  86226056000                       # Cumulative time (in ticks) in various power states
system.cpu0.clk_domain.voltage_domain.voltage            1                       # Voltage in Volts
system.cpu0.clk_domain.clock                      500                       # Clock period in ticks
system.cpu0.dtb.walker.pwrStateResidencyTicks::UNDEFINED  86226056000                       # Cumulative time (in ticks) in various power states
system.cpu0.dtb.rdAccesses                   10083555                       # TLB accesses on read requests
system.cpu0.dtb.wrAccesses                    4222136                       # TLB accesses on write requests
system.cpu0.dtb.rdMisses                       124875                       # TLB misses on read requests
system.cpu0.dtb.wrMisses                         7841                       # TLB misses on write requests
system.cpu0.apic_clk_domain.clock                8000                       # Clock period in ticks
system.cpu0.interrupts.pwrStateResidencyTicks::UNDEFINED  86226056000                       # Cumulative time (in ticks) in various power states
system.cpu0.itb.walker.pwrStateResidencyTicks::UNDEFINED  86226056000                       # Cumulative time (in ticks) in various power states
system.cpu0.itb.rdAccesses                          0                       # TLB accesses on read requests
system.cpu0.itb.wrAccesses                   44456049                       # TLB accesses on write requests
system.cpu0.itb.rdMisses                            0                       # TLB misses on read requests
system.cpu0.itb.wrMisses                         3246                       # TLB misses on write requests
system.cpu0.workload.drivers.device.dispatcher.num_kernel_launched            4                       # number of kernel launched
system.cpu0.workload.drivers.device.dispatcher.cycles_wait_dispatch           12                       # number of cycles with outstanding wavefronts that are waiting to be dispatched
system.cpu0.workload.drivers.device.hsapp.pwrStateResidencyTicks::UNDEFINED  86226056000                       # Cumulative time (in ticks) in various power states
system.cpu0.workload.drivers.device.pwrStateResidencyTicks::UNDEFINED  86226056000                       # Cumulative time (in ticks) in various power states
system.cpu0.workload.numSyscalls               181324                       # Number of system calls
system.cpu0.numPwrStateTransitions                  2                       # Number of power state transitions
system.cpu0.pwrStateClkGateDist::samples            1                       # Distribution of time spent in the clock gated state
system.cpu0.pwrStateClkGateDist::mean        13534000                       # Distribution of time spent in the clock gated state
system.cpu0.pwrStateClkGateDist::1000-5e+10            1    100.00%    100.00% # Distribution of time spent in the clock gated state
system.cpu0.pwrStateClkGateDist::min_value     13534000                       # Distribution of time spent in the clock gated state
system.cpu0.pwrStateClkGateDist::max_value     13534000                       # Distribution of time spent in the clock gated state
system.cpu0.pwrStateClkGateDist::total              1                       # Distribution of time spent in the clock gated state
system.cpu0.pwrStateResidencyTicks::ON    86212522000                       # Cumulative time (in ticks) in various power states
system.cpu0.pwrStateResidencyTicks::CLK_GATED     13534000                       # Cumulative time (in ticks) in various power states
system.cpu0.numCycles                       172452112                       # number of cpu cycles simulated
system.cpu0.numWorkItemsStarted                     0                       # number of work items this cpu started
system.cpu0.numWorkItemsCompleted                   0                       # number of work items this cpu completed
system.cpu0.committedInsts                   33697797                       # Number of instructions committed
system.cpu0.committedOps                     68482727                       # Number of ops (including micro ops) committed
system.cpu0.num_int_alu_accesses             64767311                       # Number of integer alu accesses
system.cpu0.num_fp_alu_accesses               6292322                       # Number of float alu accesses
system.cpu0.num_vec_alu_accesses                    0                       # Number of vector alu accesses
system.cpu0.num_func_calls                    1443740                       # number of times a function call or return occured
system.cpu0.num_conditional_control_insts      6992813                       # number of instructions that are conditional controls
system.cpu0.num_int_insts                    64767311                       # number of integer instructions
system.cpu0.num_fp_insts                      6292322                       # number of float instructions
system.cpu0.num_vec_insts                           0                       # number of vector instructions
system.cpu0.num_int_register_reads          122797080                       # number of times the integer registers were read
system.cpu0.num_int_register_writes          50447379                       # number of times the integer registers were written
system.cpu0.num_fp_register_reads             9115862                       # number of times the floating registers were read
system.cpu0.num_fp_register_writes            4417401                       # number of times the floating registers were written
system.cpu0.num_vec_register_reads                  0                       # number of times the vector registers were read
system.cpu0.num_vec_register_writes                 0                       # number of times the vector registers were written
system.cpu0.num_cc_register_reads            43167655                       # number of times the CC registers were read
system.cpu0.num_cc_register_writes           21918816                       # number of times the CC registers were written
system.cpu0.num_mem_refs                     14304089                       # number of memory refs
system.cpu0.num_load_insts                   10082155                       # Number of load instructions
system.cpu0.num_store_insts                   4221934                       # Number of store instructions
system.cpu0.num_idle_cycles              27068.000000                       # Number of idle cycles
system.cpu0.num_busy_cycles              172425044.000000                       # Number of busy cycles
system.cpu0.not_idle_fraction                0.999843                       # Percentage of non-idle cycles
system.cpu0.idle_fraction                    0.000157                       # Percentage of idle cycles
system.cpu0.Branches                          8892044                       # Number of branches fetched
system.cpu0.op_class::No_OpClass               159909      0.23%      0.23% # Class of executed instruction
system.cpu0.op_class::IntAlu                 50056431     73.09%     73.33% # Class of executed instruction
system.cpu0.op_class::IntMult                  222565      0.32%     73.65% # Class of executed instruction
system.cpu0.op_class::IntDiv                   134560      0.20%     73.85% # Class of executed instruction
system.cpu0.op_class::FloatAdd                   8069      0.01%     73.86% # Class of executed instruction
system.cpu0.op_class::FloatCmp                      7      0.00%     73.86% # Class of executed instruction
system.cpu0.op_class::FloatCvt                   8416      0.01%     73.87% # Class of executed instruction
system.cpu0.op_class::FloatMult                     8      0.00%     73.87% # Class of executed instruction
system.cpu0.op_class::FloatMultAcc                  0      0.00%     73.87% # Class of executed instruction
system.cpu0.op_class::FloatDiv                      7      0.00%     73.87% # Class of executed instruction
system.cpu0.op_class::FloatMisc                     0      0.00%     73.87% # Class of executed instruction
system.cpu0.op_class::FloatSqrt                     0      0.00%     73.87% # Class of executed instruction
system.cpu0.op_class::SimdAdd                   53392      0.08%     73.95% # Class of executed instruction
system.cpu0.op_class::SimdAddAcc                    0      0.00%     73.95% # Class of executed instruction
system.cpu0.op_class::SimdAlu                 1156417      1.69%     75.64% # Class of executed instruction
system.cpu0.op_class::SimdCmp                    1280      0.00%     75.64% # Class of executed instruction
system.cpu0.op_class::SimdCvt                  115454      0.17%     75.81% # Class of executed instruction
system.cpu0.op_class::SimdMisc                 606853      0.89%     76.70% # Class of executed instruction
system.cpu0.op_class::SimdMult                      0      0.00%     76.70% # Class of executed instruction
system.cpu0.op_class::SimdMultAcc                   0      0.00%     76.70% # Class of executed instruction
system.cpu0.op_class::SimdShift                 33358      0.05%     76.74% # Class of executed instruction
system.cpu0.op_class::SimdShiftAcc                  0      0.00%     76.74% # Class of executed instruction
system.cpu0.op_class::SimdSqrt                      0      0.00%     76.74% # Class of executed instruction
system.cpu0.op_class::SimdFloatAdd             180205      0.26%     77.01% # Class of executed instruction
system.cpu0.op_class::SimdFloatAlu                  0      0.00%     77.01% # Class of executed instruction
system.cpu0.op_class::SimdFloatCmp                  0      0.00%     77.01% # Class of executed instruction
system.cpu0.op_class::SimdFloatCvt            1081276      1.58%     78.59% # Class of executed instruction
system.cpu0.op_class::SimdFloatDiv                  9      0.00%     78.59% # Class of executed instruction
system.cpu0.op_class::SimdFloatMisc                 0      0.00%     78.59% # Class of executed instruction
system.cpu0.op_class::SimdFloatMult            360422      0.53%     79.11% # Class of executed instruction
system.cpu0.op_class::SimdFloatMultAcc              0      0.00%     79.11% # Class of executed instruction
system.cpu0.op_class::SimdFloatSqrt                 0      0.00%     79.11% # Class of executed instruction
system.cpu0.op_class::MemRead                 8848247     12.92%     92.03% # Class of executed instruction
system.cpu0.op_class::MemWrite                3136353      4.58%     96.61% # Class of executed instruction
system.cpu0.op_class::FloatMemRead            1233908      1.80%     98.41% # Class of executed instruction
system.cpu0.op_class::FloatMemWrite           1085581      1.59%    100.00% # Class of executed instruction
system.cpu0.op_class::IprAccess                     0      0.00%    100.00% # Class of executed instruction
system.cpu0.op_class::InstPrefetch                  0      0.00%    100.00% # Class of executed instruction
system.cpu0.op_class::total                  68482727                       # Class of executed instruction
system.cpu1.clk_domain.voltage_domain.voltage            1                       # Voltage in Volts
system.cpu1.clk_domain.clock                      500                       # Clock period in ticks
system.cpu1.dtb.walker.pwrStateResidencyTicks::UNDEFINED  86226056000                       # Cumulative time (in ticks) in various power states
system.cpu1.dtb.rdAccesses                   24678290                       # TLB accesses on read requests
system.cpu1.dtb.wrAccesses                    1495615                       # TLB accesses on write requests
system.cpu1.dtb.rdMisses                          211                       # TLB misses on read requests
system.cpu1.dtb.wrMisses                            5                       # TLB misses on write requests
system.cpu1.apic_clk_domain.clock                8000                       # Clock period in ticks
system.cpu1.interrupts.pwrStateResidencyTicks::UNDEFINED  86226056000                       # Cumulative time (in ticks) in various power states
system.cpu1.itb.walker.pwrStateResidencyTicks::UNDEFINED  86226056000                       # Cumulative time (in ticks) in various power states
system.cpu1.itb.rdAccesses                          0                       # TLB accesses on read requests
system.cpu1.itb.wrAccesses                   76647999                       # TLB accesses on write requests
system.cpu1.itb.rdMisses                            0                       # TLB misses on read requests
system.cpu1.itb.wrMisses                          127                       # TLB misses on write requests
system.cpu1.pwrStateResidencyTicks::ON    86226056000                       # Cumulative time (in ticks) in various power states
system.cpu1.numCycles                       172026073                       # number of cpu cycles simulated
system.cpu1.numWorkItemsStarted                     0                       # number of work items this cpu started
system.cpu1.numWorkItemsCompleted                   0                       # number of work items this cpu completed
system.cpu1.committedInsts                   57031233                       # Number of instructions committed
system.cpu1.committedOps                    107053331                       # Number of ops (including micro ops) committed
system.cpu1.num_int_alu_accesses            104319743                       # Number of integer alu accesses
system.cpu1.num_fp_alu_accesses               4555412                       # Number of float alu accesses
system.cpu1.num_vec_alu_accesses                    0                       # Number of vector alu accesses
system.cpu1.num_func_calls                    2986881                       # number of times a function call or return occured
system.cpu1.num_conditional_control_insts     12275935                       # number of instructions that are conditional controls
system.cpu1.num_int_insts                   104319743                       # number of integer instructions
system.cpu1.num_fp_insts                      4555412                       # number of float instructions
system.cpu1.num_vec_insts                           0                       # number of vector instructions
system.cpu1.num_int_register_reads          200972767                       # number of times the integer registers were read
system.cpu1.num_int_register_writes          84246291                       # number of times the integer registers were written
system.cpu1.num_fp_register_reads             6833153                       # number of times the floating registers were read
system.cpu1.num_fp_register_writes            4099615                       # number of times the floating registers were written
system.cpu1.num_vec_register_reads                  0                       # number of times the vector registers were read
system.cpu1.num_vec_register_writes                 0                       # number of times the vector registers were written
system.cpu1.num_cc_register_reads            88012218                       # number of times the CC registers were read
system.cpu1.num_cc_register_writes           35337896                       # number of times the CC registers were written
system.cpu1.num_mem_refs                     26173905                       # number of memory refs
system.cpu1.num_load_insts                   24678290                       # Number of load instructions
system.cpu1.num_store_insts                   1495615                       # Number of store instructions
system.cpu1.num_idle_cycles              69321376.990191                       # Number of idle cycles
system.cpu1.num_busy_cycles              102704696.009809                       # Number of busy cycles
system.cpu1.not_idle_fraction                0.597030                       # Percentage of non-idle cycles
system.cpu1.idle_fraction                    0.402970                       # Percentage of idle cycles
system.cpu1.Branches                         16756249                       # Number of branches fetched
system.cpu1.op_class::No_OpClass                  399      0.00%      0.00% # Class of executed instruction
system.cpu1.op_class::IntAlu                 77690280     72.57%     72.57% # Class of executed instruction
system.cpu1.op_class::IntMult                       0      0.00%     72.57% # Class of executed instruction
system.cpu1.op_class::IntDiv                       86      0.00%     72.57% # Class of executed instruction
system.cpu1.op_class::FloatAdd                     41      0.00%     72.57% # Class of executed instruction
system.cpu1.op_class::FloatCmp                      0      0.00%     72.57% # Class of executed instruction
system.cpu1.op_class::FloatCvt                     80      0.00%     72.57% # Class of executed instruction
system.cpu1.op_class::FloatMult                     0      0.00%     72.57% # Class of executed instruction
system.cpu1.op_class::FloatMultAcc                  0      0.00%     72.57% # Class of executed instruction
system.cpu1.op_class::FloatDiv                      0      0.00%     72.57% # Class of executed instruction
system.cpu1.op_class::FloatMisc                     0      0.00%     72.57% # Class of executed instruction
system.cpu1.op_class::FloatSqrt                     0      0.00%     72.57% # Class of executed instruction
system.cpu1.op_class::SimdAdd                     248      0.00%     72.57% # Class of executed instruction
system.cpu1.op_class::SimdAddAcc                    0      0.00%     72.57% # Class of executed instruction
system.cpu1.op_class::SimdAlu                  910909      0.85%     73.42% # Class of executed instruction
system.cpu1.op_class::SimdCmp                       0      0.00%     73.42% # Class of executed instruction
system.cpu1.op_class::SimdCvt                     496      0.00%     73.42% # Class of executed instruction
system.cpu1.op_class::SimdMisc                 455561      0.43%     73.85% # Class of executed instruction
system.cpu1.op_class::SimdMult                      0      0.00%     73.85% # Class of executed instruction
system.cpu1.op_class::SimdMultAcc                   0      0.00%     73.85% # Class of executed instruction
system.cpu1.op_class::SimdShift                    94      0.00%     73.85% # Class of executed instruction
system.cpu1.op_class::SimdShiftAcc                  0      0.00%     73.85% # Class of executed instruction
system.cpu1.op_class::SimdSqrt                      0      0.00%     73.85% # Class of executed instruction
system.cpu1.op_class::SimdFloatAdd             455305      0.43%     74.27% # Class of executed instruction
system.cpu1.op_class::SimdFloatAlu                  0      0.00%     74.27% # Class of executed instruction
system.cpu1.op_class::SimdFloatCmp                  0      0.00%     74.27% # Class of executed instruction
system.cpu1.op_class::SimdFloatCvt             910614      0.85%     75.13% # Class of executed instruction
system.cpu1.op_class::SimdFloatDiv                  4      0.00%     75.13% # Class of executed instruction
system.cpu1.op_class::SimdFloatMisc                 0      0.00%     75.13% # Class of executed instruction
system.cpu1.op_class::SimdFloatMult            455309      0.43%     75.55% # Class of executed instruction
system.cpu1.op_class::SimdFloatMultAcc              0      0.00%     75.55% # Class of executed instruction
system.cpu1.op_class::SimdFloatSqrt                 0      0.00%     75.55% # Class of executed instruction
system.cpu1.op_class::MemRead                23311719     21.78%     97.33% # Class of executed instruction
system.cpu1.op_class::MemWrite                1495447      1.40%     98.72% # Class of executed instruction
system.cpu1.op_class::FloatMemRead            1366571      1.28%    100.00% # Class of executed instruction
system.cpu1.op_class::FloatMemWrite               168      0.00%    100.00% # Class of executed instruction
system.cpu1.op_class::IprAccess                     0      0.00%    100.00% # Class of executed instruction
system.cpu1.op_class::InstPrefetch                  0      0.00%    100.00% # Class of executed instruction
system.cpu1.op_class::total                 107053331                       # Class of executed instruction
system.cpu2.clk_domain.voltage_domain.voltage            1                       # Voltage in Volts
system.cpu2.clk_domain.clock                     1000                       # Clock period in ticks
system.cpu2.CUs0.localDataStore.pwrStateResidencyTicks::UNDEFINED  86226056000                       # Cumulative time (in ticks) in various power states
system.cpu2.CUs0.scalar_register_file0.register_reads          480                       # Total number of DWORDs read from register file
system.cpu2.CUs0.scalar_register_file0.register_writes          488                       # Total number of DWORDS written to register file
system.cpu2.CUs0.scalar_register_file0.sram_reads            0                       # Total number of register file bank SRAM activations for reads
system.cpu2.CUs0.scalar_register_file0.sram_writes            0                       # Total number of register file bank SRAM activations for writes
system.cpu2.CUs0.scalar_register_file1.register_reads            0                       # Total number of DWORDs read from register file
system.cpu2.CUs0.scalar_register_file1.register_writes            0                       # Total number of DWORDS written to register file
system.cpu2.CUs0.scalar_register_file1.sram_reads            0                       # Total number of register file bank SRAM activations for reads
system.cpu2.CUs0.scalar_register_file1.sram_writes            0                       # Total number of register file bank SRAM activations for writes
system.cpu2.CUs0.scalar_register_file2.register_reads            0                       # Total number of DWORDs read from register file
system.cpu2.CUs0.scalar_register_file2.register_writes            0                       # Total number of DWORDS written to register file
system.cpu2.CUs0.scalar_register_file2.sram_reads            0                       # Total number of register file bank SRAM activations for reads
system.cpu2.CUs0.scalar_register_file2.sram_writes            0                       # Total number of register file bank SRAM activations for writes
system.cpu2.CUs0.scalar_register_file3.register_reads            0                       # Total number of DWORDs read from register file
system.cpu2.CUs0.scalar_register_file3.register_writes            0                       # Total number of DWORDS written to register file
system.cpu2.CUs0.scalar_register_file3.sram_reads            0                       # Total number of register file bank SRAM activations for reads
system.cpu2.CUs0.scalar_register_file3.sram_writes            0                       # Total number of register file bank SRAM activations for writes
system.cpu2.CUs0.vector_register_file0.register_reads        11966                       # Total number of DWORDs read from register file
system.cpu2.CUs0.vector_register_file0.register_writes         8036                       # Total number of DWORDS written to register file
system.cpu2.CUs0.vector_register_file0.sram_reads         3387                       # Total number of register file bank SRAM activations for reads
system.cpu2.CUs0.vector_register_file0.sram_writes         2270                       # Total number of register file bank SRAM activations for writes
system.cpu2.CUs0.vector_register_file1.register_reads            0                       # Total number of DWORDs read from register file
system.cpu2.CUs0.vector_register_file1.register_writes            0                       # Total number of DWORDS written to register file
system.cpu2.CUs0.vector_register_file1.sram_reads            0                       # Total number of register file bank SRAM activations for reads
system.cpu2.CUs0.vector_register_file1.sram_writes            0                       # Total number of register file bank SRAM activations for writes
system.cpu2.CUs0.vector_register_file2.register_reads            0                       # Total number of DWORDs read from register file
system.cpu2.CUs0.vector_register_file2.register_writes            0                       # Total number of DWORDS written to register file
system.cpu2.CUs0.vector_register_file2.sram_reads            0                       # Total number of register file bank SRAM activations for reads
system.cpu2.CUs0.vector_register_file2.sram_writes            0                       # Total number of register file bank SRAM activations for writes
system.cpu2.CUs0.vector_register_file3.register_reads            0                       # Total number of DWORDs read from register file
system.cpu2.CUs0.vector_register_file3.register_writes            0                       # Total number of DWORDS written to register file
system.cpu2.CUs0.vector_register_file3.sram_reads            0                       # Total number of register file bank SRAM activations for reads
system.cpu2.CUs0.vector_register_file3.sram_writes            0                       # Total number of register file bank SRAM activations for writes
system.cpu2.CUs0.wavefronts00.num_instr_executed          524                       # number of instructions executed by this WF slot
system.cpu2.CUs0.wavefronts00.sch_cycles         1129                       # number of cycles spent in schedule stage
system.cpu2.CUs0.wavefronts00.sch_stalls          605                       # number of cycles WF is stalled in SCH stage
system.cpu2.CUs0.wavefronts00.sch_rf_access_stalls            0                       # number of cycles wave selected in SCH but RF denied adding instruction
system.cpu2.CUs0.wavefronts00.sch_resource_stalls          605                       # number of cycles stalled in sch by resource not available
system.cpu2.CUs0.wavefronts00.sch_opd_nrdy_stalls            0                       # number of cycles stalled in sch waiting for RF reads to complete
system.cpu2.CUs0.wavefronts00.sch_lds_arb_stalls            0                       # number of cycles wave stalled due to LDS-VRF arbitration
system.cpu2.CUs0.wavefronts00.timesBlockedDueWAXDependencies            0                       # number of times the wf's instructions are blocked due to WAW or WAR dependencies
system.cpu2.CUs0.wavefronts00.timesBlockedDueRAWDependencies          985                       # number of times the wf's instructions are blocked due to RAW dependencies
system.cpu2.CUs0.wavefronts00.vec_raw_distance::samples          520                       # Count of RAW distance in dynamic instructions for this WF
system.cpu2.CUs0.wavefronts00.vec_raw_distance::mean    13.338462                       # Count of RAW distance in dynamic instructions for this WF
system.cpu2.CUs0.wavefronts00.vec_raw_distance::stdev    52.549865                       # Count of RAW distance in dynamic instructions for this WF
system.cpu2.CUs0.wavefronts00.vec_raw_distance::underflows            0      0.00%      0.00% # Count of RAW distance in dynamic instructions for this WF
system.cpu2.CUs0.wavefronts00.vec_raw_distance::0            0      0.00%      0.00% # Count of RAW distance in dynamic instructions for this WF
system.cpu2.CUs0.wavefronts00.vec_raw_distance::1          116     22.31%     22.31% # Count of RAW distance in dynamic instructions for this WF
system.cpu2.CUs0.wavefronts00.vec_raw_distance::2          100     19.23%     41.54% # Count of RAW distance in dynamic instructions for this WF
system.cpu2.CUs0.wavefronts00.vec_raw_distance::3           68     13.08%     54.62% # Count of RAW distance in dynamic instructions for this WF
system.cpu2.CUs0.wavefronts00.vec_raw_distance::4           52     10.00%     64.62% # Count of RAW distance in dynamic instructions for this WF
system.cpu2.CUs0.wavefronts00.vec_raw_distance::5           24      4.62%     69.23% # Count of RAW distance in dynamic instructions for this WF
system.cpu2.CUs0.wavefronts00.vec_raw_distance::6           24      4.62%     73.85% # Count of RAW distance in dynamic instructions for this WF
system.cpu2.CUs0.wavefronts00.vec_raw_distance::7           12      2.31%     76.15% # Count of RAW distance in dynamic instructions for this WF
system.cpu2.CUs0.wavefronts00.vec_raw_distance::8           16      3.08%     79.23% # Count of RAW distance in dynamic instructions for this WF
system.cpu2.CUs0.wavefronts00.vec_raw_distance::9           16      3.08%     82.31% # Count of RAW distance in dynamic instructions for this WF
system.cpu2.CUs0.wavefronts00.vec_raw_distance::10            8      1.54%     83.85% # Count of RAW distance in dynamic instructions for this WF
system.cpu2.CUs0.wavefronts00.vec_raw_distance::11            4      0.77%     84.62% # Count of RAW distance in dynamic instructions for this WF
system.cpu2.CUs0.wavefronts00.vec_raw_distance::12            8      1.54%     86.15% # Count of RAW distance in dynamic instructions for this WF
system.cpu2.CUs0.wavefronts00.vec_raw_distance::13           12      2.31%     88.46% # Count of RAW distance in dynamic instructions for this WF
system.cpu2.CUs0.wavefronts00.vec_raw_distance::14            0      0.00%     88.46% # Count of RAW distance in dynamic instructions for this WF
system.cpu2.CUs0.wavefronts00.vec_raw_distance::15            0      0.00%     88.46% # Count of RAW distance in dynamic instructions for this WF
system.cpu2.CUs0.wavefronts00.vec_raw_distance::16            4      0.77%     89.23% # Count of RAW distance in dynamic instructions for this WF
system.cpu2.CUs0.wavefronts00.vec_raw_distance::17            8      1.54%     90.77% # Count of RAW distance in dynamic instructions for this WF
system.cpu2.CUs0.wavefronts00.vec_raw_distance::18            0      0.00%     90.77% # Count of RAW distance in dynamic instructions for this WF
system.cpu2.CUs0.wavefronts00.vec_raw_distance::19            8      1.54%     92.31% # Count of RAW distance in dynamic instructions for this WF
system.cpu2.CUs0.wavefronts00.vec_raw_distance::20            4      0.77%     93.08% # Count of RAW distance in dynamic instructions for this WF
system.cpu2.CUs0.wavefronts00.vec_raw_distance::overflows           36      6.92%    100.00% # Count of RAW distance in dynamic instructions for this WF
system.cpu2.CUs0.wavefronts00.vec_raw_distance::min_value            1                       # Count of RAW distance in dynamic instructions for this WF
system.cpu2.CUs0.wavefronts00.vec_raw_distance::max_value          474                       # Count of RAW distance in dynamic instructions for this WF
system.cpu2.CUs0.wavefronts00.vec_raw_distance::total          520                       # Count of RAW distance in dynamic instructions for this WF
system.cpu2.CUs0.wavefronts00.vec_reads_per_write::samples          352                       # Count of Vector reads per write for this WF
system.cpu2.CUs0.wavefronts00.vec_reads_per_write::mean     1.477273                       # Count of Vector reads per write for this WF
system.cpu2.CUs0.wavefronts00.vec_reads_per_write::stdev     0.880006                       # Count of Vector reads per write for this WF
system.cpu2.CUs0.wavefronts00.vec_reads_per_write::underflows            0      0.00%      0.00% # Count of Vector reads per write for this WF
system.cpu2.CUs0.wavefronts00.vec_reads_per_write::0            0      0.00%      0.00% # Count of Vector reads per write for this WF
system.cpu2.CUs0.wavefronts00.vec_reads_per_write::1          244     69.32%     69.32% # Count of Vector reads per write for this WF
system.cpu2.CUs0.wavefronts00.vec_reads_per_write::2           72     20.45%     89.77% # Count of Vector reads per write for this WF
system.cpu2.CUs0.wavefronts00.vec_reads_per_write::3           20      5.68%     95.45% # Count of Vector reads per write for this WF
system.cpu2.CUs0.wavefronts00.vec_reads_per_write::4            8      2.27%     97.73% # Count of Vector reads per write for this WF
system.cpu2.CUs0.wavefronts00.vec_reads_per_write::overflows            8      2.27%    100.00% # Count of Vector reads per write for this WF
system.cpu2.CUs0.wavefronts00.vec_reads_per_write::min_value            1                       # Count of Vector reads per write for this WF
system.cpu2.CUs0.wavefronts00.vec_reads_per_write::max_value            5                       # Count of Vector reads per write for this WF
system.cpu2.CUs0.wavefronts00.vec_reads_per_write::total          352                       # Count of Vector reads per write for this WF
system.cpu2.CUs0.wavefronts01.num_instr_executed            0                       # number of instructions executed by this WF slot
system.cpu2.CUs0.wavefronts01.sch_cycles            0                       # number of cycles spent in schedule stage
system.cpu2.CUs0.wavefronts01.sch_stalls            0                       # number of cycles WF is stalled in SCH stage
system.cpu2.CUs0.wavefronts01.sch_rf_access_stalls            0                       # number of cycles wave selected in SCH but RF denied adding instruction
system.cpu2.CUs0.wavefronts01.sch_resource_stalls            0                       # number of cycles stalled in sch by resource not available
system.cpu2.CUs0.wavefronts01.sch_opd_nrdy_stalls            0                       # number of cycles stalled in sch waiting for RF reads to complete
system.cpu2.CUs0.wavefronts01.sch_lds_arb_stalls            0                       # number of cycles wave stalled due to LDS-VRF arbitration
system.cpu2.CUs0.wavefronts01.timesBlockedDueWAXDependencies            0                       # number of times the wf's instructions are blocked due to WAW or WAR dependencies
system.cpu2.CUs0.wavefronts01.timesBlockedDueRAWDependencies            0                       # number of times the wf's instructions are blocked due to RAW dependencies
system.cpu2.CUs0.wavefronts01.vec_raw_distance::samples            0                       # Count of RAW distance in dynamic instructions for this WF
system.cpu2.CUs0.wavefronts01.vec_raw_distance::mean          nan                       # Count of RAW distance in dynamic instructions for this WF
system.cpu2.CUs0.wavefronts01.vec_raw_distance::stdev          nan                       # Count of RAW distance in dynamic instructions for this WF
system.cpu2.CUs0.wavefronts01.vec_raw_distance::underflows            0                       # Count of RAW distance in dynamic instructions for this WF
system.cpu2.CUs0.wavefronts01.vec_raw_distance::0            0                       # Count of RAW distance in dynamic instructions for this WF
system.cpu2.CUs0.wavefronts01.vec_raw_distance::1            0                       # Count of RAW distance in dynamic instructions for this WF
system.cpu2.CUs0.wavefronts01.vec_raw_distance::2            0                       # Count of RAW distance in dynamic instructions for this WF
system.cpu2.CUs0.wavefronts01.vec_raw_distance::3            0                       # Count of RAW distance in dynamic instructions for this WF
system.cpu2.CUs0.wavefronts01.vec_raw_distance::4            0                       # Count of RAW distance in dynamic instructions for this WF
system.cpu2.CUs0.wavefronts01.vec_raw_distance::5            0                       # Count of RAW distance in dynamic instructions for this WF
system.cpu2.CUs0.wavefronts01.vec_raw_distance::6            0                       # Count of RAW distance in dynamic instructions for this WF
system.cpu2.CUs0.wavefronts01.vec_raw_distance::7            0                       # Count of RAW distance in dynamic instructions for this WF
system.cpu2.CUs0.wavefronts01.vec_raw_distance::8            0                       # Count of RAW distance in dynamic instructions for this WF
system.cpu2.CUs0.wavefronts01.vec_raw_distance::9            0                       # Count of RAW distance in dynamic instructions for this WF
system.cpu2.CUs0.wavefronts01.vec_raw_distance::10            0                       # Count of RAW distance in dynamic instructions for this WF
system.cpu2.CUs0.wavefronts01.vec_raw_distance::11            0                       # Count of RAW distance in dynamic instructions for this WF
system.cpu2.CUs0.wavefronts01.vec_raw_distance::12            0                       # Count of RAW distance in dynamic instructions for this WF
system.cpu2.CUs0.wavefronts01.vec_raw_distance::13            0                       # Count of RAW distance in dynamic instructions for this WF
system.cpu2.CUs0.wavefronts01.vec_raw_distance::14            0                       # Count of RAW distance in dynamic instructions for this WF
system.cpu2.CUs0.wavefronts01.vec_raw_distance::15            0                       # Count of RAW distance in dynamic instructions for this WF
system.cpu2.CUs0.wavefronts01.vec_raw_distance::16            0                       # Count of RAW distance in dynamic instructions for this WF
system.cpu2.CUs0.wavefronts01.vec_raw_distance::17            0                       # Count of RAW distance in dynamic instructions for this WF
system.cpu2.CUs0.wavefronts01.vec_raw_distance::18            0                       # Count of RAW distance in dynamic instructions for this WF
system.cpu2.CUs0.wavefronts01.vec_raw_distance::19            0                       # Count of RAW distance in dynamic instructions for this WF
system.cpu2.CUs0.wavefronts01.vec_raw_distance::20            0                       # Count of RAW distance in dynamic instructions for this WF
system.cpu2.CUs0.wavefronts01.vec_raw_distance::overflows            0                       # Count of RAW distance in dynamic instructions for this WF
system.cpu2.CUs0.wavefronts01.vec_raw_distance::min_value            0                       # Count of RAW distance in dynamic instructions for this WF
system.cpu2.CUs0.wavefronts01.vec_raw_distance::max_value            0                       # Count of RAW distance in dynamic instructions for this WF
system.cpu2.CUs0.wavefronts01.vec_raw_distance::total            0                       # Count of RAW distance in dynamic instructions for this WF
system.cpu2.CUs0.wavefronts01.vec_reads_per_write::samples            0                       # Count of Vector reads per write for this WF
system.cpu2.CUs0.wavefronts01.vec_reads_per_write::mean          nan                       # Count of Vector reads per write for this WF
system.cpu2.CUs0.wavefronts01.vec_reads_per_write::stdev          nan                       # Count of Vector reads per write for this WF
system.cpu2.CUs0.wavefronts01.vec_reads_per_write::underflows            0                       # Count of Vector reads per write for this WF
system.cpu2.CUs0.wavefronts01.vec_reads_per_write::0            0                       # Count of Vector reads per write for this WF
system.cpu2.CUs0.wavefronts01.vec_reads_per_write::1            0                       # Count of Vector reads per write for this WF
[...]
system.ruby.CorePair_Controller.C0_Store_L1hit      4148619      0.00%      0.00%
system.ruby.CorePair_Controller.C1_Store_L1miss           98      0.00%      0.00%
system.ruby.CorePair_Controller.C1_Store_L1hit      1495620      0.00%      0.00%
system.ruby.CorePair_Controller.NB_AckS         11197      0.00%      0.00%
system.ruby.CorePair_Controller.NB_AckM        197347      0.00%      0.00%
system.ruby.CorePair_Controller.NB_AckE         69883      0.00%      0.00%
system.ruby.CorePair_Controller.NB_AckWB       245626      0.00%      0.00%
system.ruby.CorePair_Controller.L1I_Repl        75688      0.00%      0.00%
system.ruby.CorePair_Controller.L1D0_Repl      2499295      0.00%      0.00%
system.ruby.CorePair_Controller.L1D1_Repl           18      0.00%      0.00%
system.ruby.CorePair_Controller.L2_Repl        245626      0.00%      0.00%
system.ruby.CorePair_Controller.L2_to_L1D0      2224884      0.00%      0.00%
system.ruby.CorePair_Controller.L2_to_L1D1          349      0.00%      0.00%
system.ruby.CorePair_Controller.L2_to_L1I        67138      0.00%      0.00%
system.ruby.CorePair_Controller.PrbInvData           15      0.00%      0.00%
system.ruby.CorePair_Controller.PrbShrData           49      0.00%      0.00%
system.ruby.CorePair_Controller.I.C0_Load_L1miss        69663      0.00%      0.00%
system.ruby.CorePair_Controller.I.C1_Load_L1miss          220      0.00%      0.00%
system.ruby.CorePair_Controller.I.Ifetch0_L1miss        10934      0.00%      0.00%
system.ruby.CorePair_Controller.I.Ifetch1_L1miss          248      0.00%      0.00%
system.ruby.CorePair_Controller.I.C0_Store_L1miss       197254      0.00%      0.00%
system.ruby.CorePair_Controller.I.C1_Store_L1miss           85      0.00%      0.00%
system.ruby.CorePair_Controller.I.PrbInvData            5      0.00%      0.00%
system.ruby.CorePair_Controller.S.C0_Load_L1miss            4      0.00%      0.00%
system.ruby.CorePair_Controller.S.C0_Load_L1hit            6      0.00%      0.00%
system.ruby.CorePair_Controller.S.Ifetch0_L1hit     44378003      0.00%      0.00%
system.ruby.CorePair_Controller.S.Ifetch1_L1hit     76647709      0.00%      0.00%
system.ruby.CorePair_Controller.S.Ifetch0_L1miss        67096      0.00%      0.00%
system.ruby.CorePair_Controller.S.Ifetch1_L1miss           42      0.00%      0.00%
system.ruby.CorePair_Controller.S.L1I_Repl        75688      0.00%      0.00%
system.ruby.CorePair_Controller.S.L1D0_Repl            4      0.00%      0.00%
system.ruby.CorePair_Controller.S.L2_Repl         7304      0.00%      0.00%
system.ruby.CorePair_Controller.S.PrbInvData            3      0.00%      0.00%
system.ruby.CorePair_Controller.S.PrbShrData            3      0.00%      0.00%
system.ruby.CorePair_Controller.E0.C0_Load_L1miss      2134802      0.00%      0.00%
system.ruby.CorePair_Controller.E0.C0_Load_L1hit      1511092      0.00%      0.00%
system.ruby.CorePair_Controller.E0.C1_Load_L1miss          268      0.00%      0.00%
system.ruby.CorePair_Controller.E0.Ifetch0_L1miss           15      0.00%      0.00%
system.ruby.CorePair_Controller.E0.C0_Store_L1miss          416      0.00%      0.00%
system.ruby.CorePair_Controller.E0.C0_Store_L1hit        10689      0.00%      0.00%
system.ruby.CorePair_Controller.E0.C1_Store_L1miss            1      0.00%      0.00%
system.ruby.CorePair_Controller.E0.L1D0_Repl      2193126      0.00%      0.00%
system.ruby.CorePair_Controller.E0.L2_Repl        54753      0.00%      0.00%
system.ruby.CorePair_Controller.E0.PrbInvData            2      0.00%      0.00%
system.ruby.CorePair_Controller.E0.PrbShrData            3      0.00%      0.00%
system.ruby.CorePair_Controller.E1.C0_Load_L1miss           47      0.00%      0.00%
system.ruby.CorePair_Controller.E1.C1_Load_L1miss            2      0.00%      0.00%
system.ruby.CorePair_Controller.E1.C1_Load_L1hit      6965192      0.00%      0.00%
system.ruby.CorePair_Controller.E1.C0_Store_L1miss            5      0.00%      0.00%
system.ruby.CorePair_Controller.E1.C1_Store_L1hit           30      0.00%      0.00%
system.ruby.CorePair_Controller.E1.L1D1_Repl            8      0.00%      0.00%
system.ruby.CorePair_Controller.E1.L2_Repl          112      0.00%      0.00%
system.ruby.CorePair_Controller.Es.C0_Load_L1miss         1903      0.00%      0.00%
system.ruby.CorePair_Controller.Es.C0_Load_L1hit       107863      0.00%      0.00%
system.ruby.CorePair_Controller.Es.C1_Load_L1miss            3      0.00%      0.00%
system.ruby.CorePair_Controller.Es.C1_Load_L1hit      1173842      0.00%      0.00%
system.ruby.CorePair_Controller.Es.C0_Store_L1hit           12      0.00%      0.00%
system.ruby.CorePair_Controller.Es.C1_Store_L1hit            5      0.00%      0.00%
system.ruby.CorePair_Controller.Es.L1D0_Repl         2041      0.00%      0.00%
system.ruby.CorePair_Controller.Es.L1D1_Repl            8      0.00%      0.00%
system.ruby.CorePair_Controller.Es.L2_Repl          155      0.00%      0.00%
system.ruby.CorePair_Controller.O.C0_Load_L1miss            1      0.00%      0.00%
system.ruby.CorePair_Controller.O.C0_Load_L1hit           13      0.00%      0.00%
system.ruby.CorePair_Controller.O.C0_Store_L1miss            1      0.00%      0.00%
system.ruby.CorePair_Controller.O.C0_Store_L1hit            7      0.00%      0.00%
system.ruby.CorePair_Controller.O.L1D0_Repl           11      0.00%      0.00%
system.ruby.CorePair_Controller.O.L2_Repl            7      0.00%      0.00%
system.ruby.CorePair_Controller.O.PrbInvData            3      0.00%      0.00%
system.ruby.CorePair_Controller.O.PrbShrData            8      0.00%      0.00%
system.ruby.CorePair_Controller.Ms.C0_Load_L1miss           75      0.00%      0.00%
system.ruby.CorePair_Controller.Ms.C0_Load_L1hit        17583      0.00%      0.00%
system.ruby.CorePair_Controller.Ms.C1_Load_L1hit      1636224      0.00%      0.00%
system.ruby.CorePair_Controller.Ms.C0_Store_L1hit           40      0.00%      0.00%
system.ruby.CorePair_Controller.Ms.C1_Store_L1hit           31      0.00%      0.00%
system.ruby.CorePair_Controller.Ms.L1D0_Repl           99      0.00%      0.00%
system.ruby.CorePair_Controller.Ms.L2_Repl           27      0.00%      0.00%
system.ruby.CorePair_Controller.M0.C0_Load_L1miss        88017      0.00%      0.00%
system.ruby.CorePair_Controller.M0.C0_Load_L1hit      6020125      0.00%      0.00%
system.ruby.CorePair_Controller.M0.C1_Load_L1miss           76      0.00%      0.00%
system.ruby.CorePair_Controller.M0.C0_Store_L1miss         8154      0.00%      0.00%
system.ruby.CorePair_Controller.M0.C0_Store_L1hit      4137871      0.00%      0.00%
system.ruby.CorePair_Controller.M0.C1_Store_L1miss           12      0.00%      0.00%
system.ruby.CorePair_Controller.M0.L1D0_Repl       304014      0.00%      0.00%
system.ruby.CorePair_Controller.M0.L2_Repl       183169      0.00%      0.00%
system.ruby.CorePair_Controller.M0.PrbInvData            2      0.00%      0.00%
system.ruby.CorePair_Controller.M0.PrbShrData           35      0.00%      0.00%
system.ruby.CorePair_Controller.M1.C0_Load_L1miss           35      0.00%      0.00%
system.ruby.CorePair_Controller.M1.C1_Load_L1hit     14902357      0.00%      0.00%
system.ruby.CorePair_Controller.M1.C0_Store_L1miss            7      0.00%      0.00%
system.ruby.CorePair_Controller.M1.C1_Store_L1hit      1495554      0.00%      0.00%
system.ruby.CorePair_Controller.M1.L1D1_Repl            2      0.00%      0.00%
system.ruby.CorePair_Controller.M1.L2_Repl           99      0.00%      0.00%
system.ruby.CorePair_Controller.I_M0.NB_AckM       197254      0.00%      0.00%
system.ruby.CorePair_Controller.I_M1.NB_AckM           85      0.00%      0.00%
system.ruby.CorePair_Controller.I_E0S.NB_AckE        69663      0.00%      0.00%
system.ruby.CorePair_Controller.I_E1S.NB_AckE          220      0.00%      0.00%
system.ruby.CorePair_Controller.ES_I.C1_Load_L1miss          383      0.00%      0.00%
system.ruby.CorePair_Controller.ES_I.Ifetch1_L1miss          205      0.00%      0.00%
system.ruby.CorePair_Controller.ES_I.NB_AckWB        62324      0.00%      0.00%
system.ruby.CorePair_Controller.MO_I.C1_Load_L1miss          194      0.00%      0.00%
system.ruby.CorePair_Controller.MO_I.NB_AckWB       183302      0.00%      0.00%
system.ruby.CorePair_Controller.S_F0.L2_to_L1D0            4      0.00%      0.00%
system.ruby.CorePair_Controller.O_F0.L2_to_L1D0            1      0.00%      0.00%
system.ruby.CorePair_Controller.Si_F0.L2_to_L1I        67096      0.00%      0.00%
system.ruby.CorePair_Controller.Si_F1.L2_to_L1I           42      0.00%      0.00%
system.ruby.CorePair_Controller.O_M0.NB_AckM            8      0.00%      0.00%
system.ruby.CorePair_Controller.S0.NB_AckS        10949      0.00%      0.00%
system.ruby.CorePair_Controller.S1.NB_AckS          248      0.00%      0.00%
system.ruby.CorePair_Controller.Es_F0.L2_to_L1D0         1903      0.00%      0.00%
system.ruby.CorePair_Controller.Es_F1.L2_to_L1D1            3      0.00%      0.00%
system.ruby.CorePair_Controller.E0_F.L2_to_L1D0      2134802      0.00%      0.00%
system.ruby.CorePair_Controller.E1_F.L2_to_L1D1            2      0.00%      0.00%
system.ruby.CorePair_Controller.E0_Es.L2_to_L1D1          268      0.00%      0.00%
system.ruby.CorePair_Controller.E1_Es.C1_Load_L1hit            2      0.00%      0.00%
system.ruby.CorePair_Controller.E1_Es.L2_to_L1D0           47      0.00%      0.00%
system.ruby.CorePair_Controller.Ms_F0.L2_to_L1D0           75      0.00%      0.00%
system.ruby.CorePair_Controller.M0_F.L2_to_L1D0        88017      0.00%      0.00%
system.ruby.CorePair_Controller.M0_Ms.L2_to_L1D1           76      0.00%      0.00%
system.ruby.CorePair_Controller.M1_Ms.C1_Load_L1hit            1      0.00%      0.00%
system.ruby.CorePair_Controller.M1_Ms.L2_to_L1D0           35      0.00%      0.00%
system.ruby.Directory_Controller.RdBlkS         11197      0.00%      0.00%
system.ruby.Directory_Controller.RdBlkM        197347      0.00%      0.00%
system.ruby.Directory_Controller.RdBlk          69906      0.00%      0.00%
system.ruby.Directory_Controller.WriteThrough            5      0.00%      0.00%
system.ruby.Directory_Controller.VicDirty       183302      0.00%      0.00%
system.ruby.Directory_Controller.VicClean        62324      0.00%      0.00%
system.ruby.Directory_Controller.CPUData       245626      0.00%      0.00%
system.ruby.Directory_Controller.CPUPrbResp       278527      0.00%      0.00%
system.ruby.Directory_Controller.ProbeAcksComplete       278491      0.00%      0.00%
system.ruby.Directory_Controller.L3Hit          22490      0.00%      0.00%
system.ruby.Directory_Controller.MemData       255991      0.00%      0.00%
system.ruby.Directory_Controller.WBAck           4992      0.00%      0.00%
system.ruby.Directory_Controller.CoreUnblock       278449      0.00%      0.00%
system.ruby.Directory_Controller.UnblockWriteThrough            5      0.00%      0.00%
system.ruby.Directory_Controller.DmaRead           26      0.00%      0.00%
system.ruby.Directory_Controller.DmaWrite           10      0.00%      0.00%
system.ruby.Directory_Controller.U.RdBlkS        11197      0.00%      0.00%
system.ruby.Directory_Controller.U.RdBlkM       197347      0.00%      0.00%
system.ruby.Directory_Controller.U.RdBlk        69906      0.00%      0.00%
system.ruby.Directory_Controller.U.WriteThrough            5      0.00%      0.00%
system.ruby.Directory_Controller.U.VicDirty       183302      0.00%      0.00%
system.ruby.Directory_Controller.U.VicClean        62324      0.00%      0.00%
system.ruby.Directory_Controller.U.WBAck         4992      0.00%      0.00%
system.ruby.Directory_Controller.U.DmaRead           26      0.00%      0.00%
system.ruby.Directory_Controller.U.DmaWrite           10      0.00%      0.00%
system.ruby.Directory_Controller.BL.CPUData       245626      0.00%      0.00%
system.ruby.Directory_Controller.BDR_M.MemData            1      0.00%      0.00%
system.ruby.Directory_Controller.BS_M.MemData         7199      0.00%      0.00%
system.ruby.Directory_Controller.BM_M.MemData       196213      0.00%      0.00%
system.ruby.Directory_Controller.B_M.MemData        52519      0.00%      0.00%
system.ruby.Directory_Controller.BDR_PM.CPUPrbResp           27      0.00%      0.00%
system.ruby.Directory_Controller.BDR_PM.ProbeAcksComplete            1      0.00%      0.00%
system.ruby.Directory_Controller.BDR_PM.MemData           25      0.00%      0.00%
system.ruby.Directory_Controller.BS_PM.CPUPrbResp         7199      0.00%      0.00%
system.ruby.Directory_Controller.BS_PM.ProbeAcksComplete         7199      0.00%      0.00%
system.ruby.Directory_Controller.BS_PM.L3Hit         3998      0.00%      0.00%
system.ruby.Directory_Controller.BM_PM.CPUPrbResp       196213      0.00%      0.00%
system.ruby.Directory_Controller.BM_PM.ProbeAcksComplete       196213      0.00%      0.00%
system.ruby.Directory_Controller.BM_PM.L3Hit         1134      0.00%      0.00%
system.ruby.Directory_Controller.BM_PM.MemData            5      0.00%      0.00%
system.ruby.Directory_Controller.B_PM.CPUPrbResp        52519      0.00%      0.00%
system.ruby.Directory_Controller.B_PM.ProbeAcksComplete        52519      0.00%      0.00%
system.ruby.Directory_Controller.B_PM.L3Hit        17358      0.00%      0.00%
system.ruby.Directory_Controller.B_PM.MemData           29      0.00%      0.00%
system.ruby.Directory_Controller.BDW_P.CPUPrbResp           20      0.00%      0.00%
system.ruby.Directory_Controller.BDW_P.ProbeAcksComplete           10      0.00%      0.00%
system.ruby.Directory_Controller.BDR_Pm.CPUPrbResp           25      0.00%      0.00%
system.ruby.Directory_Controller.BDR_Pm.ProbeAcksComplete           25      0.00%      0.00%
system.ruby.Directory_Controller.BS_Pm.CPUPrbResp         3998      0.00%      0.00%
system.ruby.Directory_Controller.BS_Pm.ProbeAcksComplete         3998      0.00%      0.00%
system.ruby.Directory_Controller.BM_Pm.CPUPrbResp         1139      0.00%      0.00%
system.ruby.Directory_Controller.BM_Pm.ProbeAcksComplete         1139      0.00%      0.00%
system.ruby.Directory_Controller.B_Pm.CPUPrbResp        17387      0.00%      0.00%
system.ruby.Directory_Controller.B_Pm.ProbeAcksComplete        17387      0.00%      0.00%
system.ruby.Directory_Controller.B.CoreUnblock       278449      0.00%      0.00%
system.ruby.Directory_Controller.B.UnblockWriteThrough            5      0.00%      0.00%
system.ruby.SQC_Controller.Fetch         |          48     66.67%     66.67% |          24     33.33%    100.00%
system.ruby.SQC_Controller.Fetch::total            72                      
system.ruby.SQC_Controller.Data          |          12     60.00%     60.00% |           8     40.00%    100.00%
system.ruby.SQC_Controller.Data::total             20                      
system.ruby.SQC_Controller.I.Fetch       |          12     60.00%     60.00% |           8     40.00%    100.00%
system.ruby.SQC_Controller.I.Fetch::total           20                      
system.ruby.SQC_Controller.I.Data        |          12     60.00%     60.00% |           8     40.00%    100.00%
system.ruby.SQC_Controller.I.Data::total           20                      
system.ruby.SQC_Controller.V.Fetch       |          36     69.23%     69.23% |          16     30.77%    100.00%
system.ruby.SQC_Controller.V.Fetch::total           52                      
system.ruby.TCC_Controller.RdBlk                   32      0.00%      0.00%
system.ruby.TCC_Controller.WrVicBlk                 5      0.00%      0.00%
system.ruby.TCC_Controller.Data                    23      0.00%      0.00%
system.ruby.TCC_Controller.PrbInv              278463      0.00%      0.00%
system.ruby.TCC_Controller.WBAck                    5      0.00%      0.00%
system.ruby.TCC_Controller.V.RdBlk                  9      0.00%      0.00%
system.ruby.TCC_Controller.V.WrVicBlk               3      0.00%      0.00%
system.ruby.TCC_Controller.V.PrbInv                 4      0.00%      0.00%
system.ruby.TCC_Controller.V.WBAck                  3      0.00%      0.00%
system.ruby.TCC_Controller.I.RdBlk                 23      0.00%      0.00%
system.ruby.TCC_Controller.I.WrVicBlk               2      0.00%      0.00%
system.ruby.TCC_Controller.I.PrbInv            278459      0.00%      0.00%
system.ruby.TCC_Controller.I.WBAck                  2      0.00%      0.00%
system.ruby.TCC_Controller.IV.Data                 23      0.00%      0.00%
system.ruby.TCP_Controller.Load          |          25    100.00%    100.00% |           0      0.00%    100.00% |           0      0.00%    100.00% |           0      0.00%    100.00%
system.ruby.TCP_Controller.Load::total             25                      
system.ruby.TCP_Controller.StoreThrough  |           5    100.00%    100.00% |           0      0.00%    100.00% |           0      0.00%    100.00% |           0      0.00%    100.00%
system.ruby.TCP_Controller.StoreThrough::total            5                      
system.ruby.TCP_Controller.Evict         |        1024     25.00%     25.00% |        1024     25.00%     50.00% |        1024     25.00%     75.00% |        1024     25.00%    100.00%
system.ruby.TCP_Controller.Evict::total          4096                      
system.ruby.TCP_Controller.TCC_Ack       |          12    100.00%    100.00% |           0      0.00%    100.00% |           0      0.00%    100.00% |           0      0.00%    100.00%
system.ruby.TCP_Controller.TCC_Ack::total           12                      
system.ruby.TCP_Controller.TCC_AckWB     |           5    100.00%    100.00% |           0      0.00%    100.00% |           0      0.00%    100.00% |           0      0.00%    100.00%
system.ruby.TCP_Controller.TCC_AckWB::total            5                      
system.ruby.TCP_Controller.I.Load        |          12    100.00%    100.00% |           0      0.00%    100.00% |           0      0.00%    100.00% |           0      0.00%    100.00%
system.ruby.TCP_Controller.I.Load::total           12                      
system.ruby.TCP_Controller.I.StoreThrough |           2    100.00%    100.00% |           0      0.00%    100.00% |           0      0.00%    100.00% |           0      0.00%    100.00%
system.ruby.TCP_Controller.I.StoreThrough::total            2                      
system.ruby.TCP_Controller.I.Evict       |        1016     24.85%     24.85% |        1024     25.05%     49.90% |        1024     25.05%     74.95% |        1024     25.05%    100.00%
system.ruby.TCP_Controller.I.Evict::total         4088                      
system.ruby.TCP_Controller.I.TCC_Ack     |          12    100.00%    100.00% |           0      0.00%    100.00% |           0      0.00%    100.00% |           0      0.00%    100.00%
system.ruby.TCP_Controller.I.TCC_Ack::total           12                      
system.ruby.TCP_Controller.I.TCC_AckWB   |           5    100.00%    100.00% |           0      0.00%    100.00% |           0      0.00%    100.00% |           0      0.00%    100.00%
system.ruby.TCP_Controller.I.TCC_AckWB::total            5                      
system.ruby.TCP_Controller.V.Load        |          13    100.00%    100.00% |           0      0.00%    100.00% |           0      0.00%    100.00% |           0      0.00%    100.00%
system.ruby.TCP_Controller.V.Load::total           13                      
system.ruby.TCP_Controller.V.StoreThrough |           3    100.00%    100.00% |           0      0.00%    100.00% |           0      0.00%    100.00% |           0      0.00%    100.00%
system.ruby.TCP_Controller.V.StoreThrough::total            3                      
system.ruby.TCP_Controller.V.Evict       |           8    100.00%    100.00% |           0      0.00%    100.00% |           0      0.00%    100.00% |           0      0.00%    100.00%
system.ruby.TCP_Controller.V.Evict::total            8                      

---------- End Simulation Statistics   ----------
