
---------- Begin Simulation Statistics ----------
sim_seconds                                  0.122785                       # Number of seconds simulated
sim_ticks                                122784895500                       # Number of ticks simulated
final_tick                               122784895500                       # Number of ticks from beginning of simulation (restored from checkpoints and never reset)
sim_freq                                 1000000000000                       # Frequency of simulated ticks
host_inst_rate                                 339101                       # Simulator instruction rate (inst/s)
host_op_rate                                   648946                       # Simulator op (including micro ops) rate (op/s)
host_tick_rate                              245054386                       # Simulator tick rate (ticks/s)
host_mem_usage                                1655372                       # Number of bytes of host memory used
host_seconds                                   501.05                       # Real time elapsed on the host
sim_insts                                   169907328                       # Number of instructions simulated
sim_ops                                     325155199                       # Number of ops (including micro ops) simulated
system.voltage_domain.voltage                       1                       # Voltage in Volts
system.clk_domain.clock                          1000                       # Clock period in ticks
system.mem_ctrls.pwrStateResidencyTicks::UNDEFINED 122784895500                       # Cumulative time (in ticks) in various power states
system.mem_ctrls.bytes_read::ruby.dir_cntrl0     17717824                       # Number of bytes read from this memory
system.mem_ctrls.bytes_read::total           17717824                       # Number of bytes read from this memory
system.mem_ctrls.bytes_written::ruby.dir_cntrl0       384576                       # Number of bytes written to this memory
system.mem_ctrls.bytes_written::total          384576                       # Number of bytes written to this memory
system.mem_ctrls.num_reads::ruby.dir_cntrl0       276841                       # Number of read requests responded to by this memory
system.mem_ctrls.num_reads::total              276841                       # Number of read requests responded to by this memory
system.mem_ctrls.num_writes::ruby.dir_cntrl0         6009                       # Number of write requests responded to by this memory
system.mem_ctrls.num_writes::total               6009                       # Number of write requests responded to by this memory
system.mem_ctrls.bw_read::ruby.dir_cntrl0    144299703                       # Total read bandwidth from this memory (bytes/s)
system.mem_ctrls.bw_read::total             144299703                       # Total read bandwidth from this memory (bytes/s)
system.mem_ctrls.bw_write::ruby.dir_cntrl0      3132112                       # Write bandwidth from this memory (bytes/s)
system.mem_ctrls.bw_write::total              3132112                       # Write bandwidth from this memory (bytes/s)
system.mem_ctrls.bw_total::ruby.dir_cntrl0    147431815                       # Total bandwidth to/from this memory (bytes/s)
system.mem_ctrls.bw_total::total            147431815                       # Total bandwidth to/from this memory (bytes/s)
system.mem_ctrls.readReqs                      276841                       # Number of read requests accepted
system.mem_ctrls.writeReqs                       6009                       # Number of write requests accepted
system.mem_ctrls.readBursts                    276841                       # Number of DRAM read bursts, including those serviced by the write queue
system.mem_ctrls.writeBursts                     6009                       # Number of DRAM write bursts, including those merged in the write queue
system.mem_ctrls.bytesReadDRAM               17717312                       # Total number of bytes read from DRAM
system.mem_ctrls.bytesReadWrQ                     512                       # Total number of bytes read from write queue
system.mem_ctrls.bytesWritten                  383488                       # Total number of bytes written to DRAM
system.mem_ctrls.bytesReadSys                17717824                       # Total read bytes from the system interface side
system.mem_ctrls.bytesWrittenSys               384576                       # Total written bytes from the system interface side
system.mem_ctrls.servicedByWrQ                      8                       # Number of DRAM read bursts serviced by the write queue
system.mem_ctrls.mergedWrBursts                     0                       # Number of DRAM write bursts merged with an existing one
system.mem_ctrls.neitherReadNorWriteReqs            0                       # Number of requests that are neither read nor write
system.mem_ctrls.perBankRdBursts::0             17438                       # Per bank write bursts
system.mem_ctrls.perBankRdBursts::1             17335                       # Per bank write bursts
system.mem_ctrls.perBankRdBursts::2             17516                       # Per bank write bursts
system.mem_ctrls.perBankRdBursts::3             17364                       # Per bank write bursts
system.mem_ctrls.perBankRdBursts::4             17447                       # Per bank write bursts
system.mem_ctrls.perBankRdBursts::5             17074                       # Per bank write bursts
system.mem_ctrls.perBankRdBursts::6             17267                       # Per bank write bursts
system.mem_ctrls.perBankRdBursts::7             17205                       # Per bank write bursts
system.mem_ctrls.perBankRdBursts::8             17356                       # Per bank write bursts
system.mem_ctrls.perBankRdBursts::9             17232                       # Per bank write bursts
system.mem_ctrls.perBankRdBursts::10            17377                       # Per bank write bursts
system.mem_ctrls.perBankRdBursts::11            17063                       # Per bank write bursts
system.mem_ctrls.perBankRdBursts::12            17368                       # Per bank write bursts
system.mem_ctrls.perBankRdBursts::13            17386                       # Per bank write bursts
system.mem_ctrls.perBankRdBursts::14            17117                       # Per bank write bursts
system.mem_ctrls.perBankRdBursts::15            17288                       # Per bank write bursts
system.mem_ctrls.perBankWrBursts::0               347                       # Per bank write bursts
system.mem_ctrls.perBankWrBursts::1               379                       # Per bank write bursts
system.mem_ctrls.perBankWrBursts::2               363                       # Per bank write bursts
system.mem_ctrls.perBankWrBursts::3               404                       # Per bank write bursts
system.mem_ctrls.perBankWrBursts::4               396                       # Per bank write bursts
system.mem_ctrls.perBankWrBursts::5               353                       # Per bank write bursts
system.mem_ctrls.perBankWrBursts::6               349                       # Per bank write bursts
system.mem_ctrls.perBankWrBursts::7               342                       # Per bank write bursts
system.mem_ctrls.perBankWrBursts::8               380                       # Per bank write bursts
system.mem_ctrls.perBankWrBursts::9               350                       # Per bank write bursts
system.mem_ctrls.perBankWrBursts::10              397                       # Per bank write bursts
system.mem_ctrls.perBankWrBursts::11              377                       # Per bank write bursts
system.mem_ctrls.perBankWrBursts::12              395                       # Per bank write bursts
system.mem_ctrls.perBankWrBursts::13              426                       # Per bank write bursts
system.mem_ctrls.perBankWrBursts::14              373                       # Per bank write bursts
system.mem_ctrls.perBankWrBursts::15              361                       # Per bank write bursts
system.mem_ctrls.numRdRetry                         0                       # Number of times read queue was full causing retry
system.mem_ctrls.numWrRetry                         0                       # Number of times write queue was full causing retry
system.mem_ctrls.totGap                  122784769000                       # Total gap between requests
system.mem_ctrls.readPktSize::0                     0                       # Read request sizes (log2)
system.mem_ctrls.readPktSize::1                     0                       # Read request sizes (log2)
system.mem_ctrls.readPktSize::2                     0                       # Read request sizes (log2)
system.mem_ctrls.readPktSize::3                     0                       # Read request sizes (log2)
system.mem_ctrls.readPktSize::4                     0                       # Read request sizes (log2)
system.mem_ctrls.readPktSize::5                     0                       # Read request sizes (log2)
system.mem_ctrls.readPktSize::6                276841                       # Read request sizes (log2)
system.mem_ctrls.writePktSize::0                    0                       # Write request sizes (log2)
system.mem_ctrls.writePktSize::1                    0                       # Write request sizes (log2)
system.mem_ctrls.writePktSize::2                    0                       # Write request sizes (log2)
system.mem_ctrls.writePktSize::3                    0                       # Write request sizes (log2)
system.mem_ctrls.writePktSize::4                    0                       # Write request sizes (log2)
system.mem_ctrls.writePktSize::5                    0                       # Write request sizes (log2)
system.mem_ctrls.writePktSize::6                 6009                       # Write request sizes (log2)
system.mem_ctrls.rdQLenPdf::0                  268397                       # What read queue length does an incoming req see
system.mem_ctrls.rdQLenPdf::1                     255                       # What read queue length does an incoming req see
system.mem_ctrls.rdQLenPdf::2                     229                       # What read queue length does an incoming req see
system.mem_ctrls.rdQLenPdf::3                     263                       # What read queue length does an incoming req see
system.mem_ctrls.rdQLenPdf::4                     329                       # What read queue length does an incoming req see
system.mem_ctrls.rdQLenPdf::5                     359                       # What read queue length does an incoming req see
system.mem_ctrls.rdQLenPdf::6                     336                       # What read queue length does an incoming req see
system.mem_ctrls.rdQLenPdf::7                     400                       # What read queue length does an incoming req see
system.mem_ctrls.rdQLenPdf::8                     370                       # What read queue length does an incoming req see
system.mem_ctrls.rdQLenPdf::9                     426                       # What read queue length does an incoming req see
system.mem_ctrls.rdQLenPdf::10                    428                       # What read queue length does an incoming req see
system.mem_ctrls.rdQLenPdf::11                    371                       # What read queue length does an incoming req see
system.mem_ctrls.rdQLenPdf::12                    348                       # What read queue length does an incoming req see
system.mem_ctrls.rdQLenPdf::13                    327                       # What read queue length does an incoming req see
system.mem_ctrls.rdQLenPdf::14                    276                       # What read queue length does an incoming req see
system.mem_ctrls.rdQLenPdf::15                    275                       # What read queue length does an incoming req see
system.mem_ctrls.rdQLenPdf::16                    266                       # What read queue length does an incoming req see
system.mem_ctrls.rdQLenPdf::17                    207                       # What read queue length does an incoming req see
system.mem_ctrls.rdQLenPdf::18                    229                       # What read queue length does an incoming req see
system.mem_ctrls.rdQLenPdf::19                    209                       # What read queue length does an incoming req see
system.mem_ctrls.rdQLenPdf::20                    183                       # What read queue length does an incoming req see
system.mem_ctrls.rdQLenPdf::21                    183                       # What read queue length does an incoming req see
system.mem_ctrls.rdQLenPdf::22                    166                       # What read queue length does an incoming req see
system.mem_ctrls.rdQLenPdf::23                    176                       # What read queue length does an incoming req see
system.mem_ctrls.rdQLenPdf::24                    164                       # What read queue length does an incoming req see
system.mem_ctrls.rdQLenPdf::25                    135                       # What read queue length does an incoming req see
system.mem_ctrls.rdQLenPdf::26                    139                       # What read queue length does an incoming req see
system.mem_ctrls.rdQLenPdf::27                     98                       # What read queue length does an incoming req see
system.mem_ctrls.rdQLenPdf::28                     91                       # What read queue length does an incoming req see
system.mem_ctrls.rdQLenPdf::29                    105                       # What read queue length does an incoming req see
system.mem_ctrls.rdQLenPdf::30                    109                       # What read queue length does an incoming req see
system.mem_ctrls.rdQLenPdf::31                    984                       # What read queue length does an incoming req see
system.mem_ctrls.wrQLenPdf::0                       1                       # What write queue length does an incoming req see
system.mem_ctrls.wrQLenPdf::1                       1                       # What write queue length does an incoming req see
system.mem_ctrls.wrQLenPdf::2                       1                       # What write queue length does an incoming req see
system.mem_ctrls.wrQLenPdf::3                       1                       # What write queue length does an incoming req see
system.mem_ctrls.wrQLenPdf::4                       1                       # What write queue length does an incoming req see
system.mem_ctrls.wrQLenPdf::5                       1                       # What write queue length does an incoming req see
system.mem_ctrls.wrQLenPdf::6                       1                       # What write queue length does an incoming req see
system.mem_ctrls.wrQLenPdf::7                       1                       # What write queue length does an incoming req see
system.mem_ctrls.wrQLenPdf::8                       1                       # What write queue length does an incoming req see
system.mem_ctrls.wrQLenPdf::9                       1                       # What write queue length does an incoming req see
system.mem_ctrls.wrQLenPdf::10                      1                       # What write queue length does an incoming req see
system.mem_ctrls.wrQLenPdf::11                      1                       # What write queue length does an incoming req see
system.mem_ctrls.wrQLenPdf::12                      1                       # What write queue length does an incoming req see
system.mem_ctrls.wrQLenPdf::13                      1                       # What write queue length does an incoming req see
system.mem_ctrls.wrQLenPdf::14                      1                       # What write queue length does an incoming req see
system.mem_ctrls.wrQLenPdf::15                    156                       # What write queue length does an incoming req see
system.mem_ctrls.wrQLenPdf::16                    160                       # What write queue length does an incoming req see
system.mem_ctrls.wrQLenPdf::17                    305                       # What write queue length does an incoming req see
system.mem_ctrls.wrQLenPdf::18                    360                       # What write queue length does an incoming req see
system.mem_ctrls.wrQLenPdf::19                    362                       # What write queue length does an incoming req see
system.mem_ctrls.wrQLenPdf::20                    361                       # What write queue length does an incoming req see
system.mem_ctrls.wrQLenPdf::21                    361                       # What write queue length does an incoming req see
system.mem_ctrls.wrQLenPdf::22                    358                       # What write queue length does an incoming req see
system.mem_ctrls.wrQLenPdf::23                    356                       # What write queue length does an incoming req see
system.mem_ctrls.wrQLenPdf::24                    356                       # What write queue length does an incoming req see
system.mem_ctrls.wrQLenPdf::25                    354                       # What write queue length does an incoming req see
system.mem_ctrls.wrQLenPdf::26                    354                       # What write queue length does an incoming req see
system.mem_ctrls.wrQLenPdf::27                    354                       # What write queue length does an incoming req see
system.mem_ctrls.wrQLenPdf::28                    354                       # What write queue length does an incoming req see
system.mem_ctrls.wrQLenPdf::29                    355                       # What write queue length does an incoming req see
system.mem_ctrls.wrQLenPdf::30                    355                       # What write queue length does an incoming req see
system.mem_ctrls.wrQLenPdf::31                    354                       # What write queue length does an incoming req see
system.mem_ctrls.wrQLenPdf::32                    354                       # What write queue length does an incoming req see
system.mem_ctrls.wrQLenPdf::33                     22                       # What write queue length does an incoming req see
system.mem_ctrls.wrQLenPdf::34                      3                       # What write queue length does an incoming req see
system.mem_ctrls.wrQLenPdf::35                      0                       # What write queue length does an incoming req see
system.mem_ctrls.wrQLenPdf::36                      0                       # What write queue length does an incoming req see
system.mem_ctrls.wrQLenPdf::37                      0                       # What write queue length does an incoming req see
system.mem_ctrls.wrQLenPdf::38                      0                       # What write queue length does an incoming req see
system.mem_ctrls.wrQLenPdf::39                      0                       # What write queue length does an incoming req see
system.mem_ctrls.wrQLenPdf::40                      0                       # What write queue length does an incoming req see
system.mem_ctrls.wrQLenPdf::41                      0                       # What write queue length does an incoming req see
system.mem_ctrls.wrQLenPdf::42                      0                       # What write queue length does an incoming req see
system.mem_ctrls.wrQLenPdf::43                      0                       # What write queue length does an incoming req see
system.mem_ctrls.wrQLenPdf::44                      0                       # What write queue length does an incoming req see
system.mem_ctrls.wrQLenPdf::45                      0                       # What write queue length does an incoming req see
system.mem_ctrls.wrQLenPdf::46                      0                       # What write queue length does an incoming req see
system.mem_ctrls.wrQLenPdf::47                      0                       # What write queue length does an incoming req see
system.mem_ctrls.wrQLenPdf::48                      0                       # What write queue length does an incoming req see
system.mem_ctrls.wrQLenPdf::49                      0                       # What write queue length does an incoming req see
system.mem_ctrls.wrQLenPdf::50                      0                       # What write queue length does an incoming req see
system.mem_ctrls.wrQLenPdf::51                      0                       # What write queue length does an incoming req see
system.mem_ctrls.wrQLenPdf::52                      0                       # What write queue length does an incoming req see
system.mem_ctrls.wrQLenPdf::53                      0                       # What write queue length does an incoming req see
system.mem_ctrls.wrQLenPdf::54                      0                       # What write queue length does an incoming req see
system.mem_ctrls.wrQLenPdf::55                      0                       # What write queue length does an incoming req see
system.mem_ctrls.wrQLenPdf::56                      0                       # What write queue length does an incoming req see
system.mem_ctrls.wrQLenPdf::57                      0                       # What write queue length does an incoming req see
system.mem_ctrls.wrQLenPdf::58                      0                       # What write queue length does an incoming req see
system.mem_ctrls.wrQLenPdf::59                      0                       # What write queue length does an incoming req see
system.mem_ctrls.wrQLenPdf::60                      0                       # What write queue length does an incoming req see
system.mem_ctrls.wrQLenPdf::61                      0                       # What write queue length does an incoming req see
system.mem_ctrls.wrQLenPdf::62                      0                       # What write queue length does an incoming req see
system.mem_ctrls.wrQLenPdf::63                      0                       # What write queue length does an incoming req see
system.mem_ctrls.bytesPerActivate::samples        37909                       # Bytes accessed per row activation
system.mem_ctrls.bytesPerActivate::mean    477.463399                       # Bytes accessed per row activation
system.mem_ctrls.bytesPerActivate::gmean   271.077775                       # Bytes accessed per row activation
system.mem_ctrls.bytesPerActivate::stdev   413.440288                       # Bytes accessed per row activation
system.mem_ctrls.bytesPerActivate::0-127        11971     31.58%     31.58% # Bytes accessed per row activation
system.mem_ctrls.bytesPerActivate::128-255         5250     13.85%     45.43% # Bytes accessed per row activation
system.mem_ctrls.bytesPerActivate::256-383         2514      6.63%     52.06% # Bytes accessed per row activation
system.mem_ctrls.bytesPerActivate::384-511         1337      3.53%     55.59% # Bytes accessed per row activation
system.mem_ctrls.bytesPerActivate::512-639         2922      7.71%     63.29% # Bytes accessed per row activation
system.mem_ctrls.bytesPerActivate::640-767          817      2.16%     65.45% # Bytes accessed per row activation
system.mem_ctrls.bytesPerActivate::768-895          616      1.62%     67.07% # Bytes accessed per row activation
system.mem_ctrls.bytesPerActivate::896-1023          692      1.83%     68.90% # Bytes accessed per row activation
system.mem_ctrls.bytesPerActivate::1024-1151        11790     31.10%    100.00% # Bytes accessed per row activation
system.mem_ctrls.bytesPerActivate::total        37909                       # Bytes accessed per row activation
system.mem_ctrls.rdPerTurnAround::samples          354                       # Reads before turning the bus around for writes
system.mem_ctrls.rdPerTurnAround::mean     781.901130                       # Reads before turning the bus around for writes
system.mem_ctrls.rdPerTurnAround::stdev   9917.895002                       # Reads before turning the bus around for writes
system.mem_ctrls.rdPerTurnAround::0-8191          352     99.44%     99.44% # Reads before turning the bus around for writes
system.mem_ctrls.rdPerTurnAround::8192-16383            1      0.28%     99.72% # Reads before turning the bus around for writes
system.mem_ctrls.rdPerTurnAround::180224-188415            1      0.28%    100.00% # Reads before turning the bus around for writes
system.mem_ctrls.rdPerTurnAround::total           354                       # Reads before turning the bus around for writes
system.mem_ctrls.wrPerTurnAround::samples          354                       # Writes before turning the bus around for reads
system.mem_ctrls.wrPerTurnAround::mean      16.926554                       # Writes before turning the bus around for reads
system.mem_ctrls.wrPerTurnAround::gmean     16.894292                       # Writes before turning the bus around for reads
system.mem_ctrls.wrPerTurnAround::stdev      1.053915                       # Writes before turning the bus around for reads
system.mem_ctrls.wrPerTurnAround::16              195     55.08%     55.08% # Writes before turning the bus around for reads
system.mem_ctrls.wrPerTurnAround::17                4      1.13%     56.21% # Writes before turning the bus around for reads
system.mem_ctrls.wrPerTurnAround::18              142     40.11%     96.33% # Writes before turning the bus around for reads
system.mem_ctrls.wrPerTurnAround::19               12      3.39%     99.72% # Writes before turning the bus around for reads
system.mem_ctrls.wrPerTurnAround::20                1      0.28%    100.00% # Writes before turning the bus around for reads
system.mem_ctrls.wrPerTurnAround::total           354                       # Writes before turning the bus around for reads
system.mem_ctrls.totQLat                   4323603500                       # Total ticks spent queuing
system.mem_ctrls.totMemAccLat              9514222250                       # Total ticks spent from burst creation until serviced by the DRAM
system.mem_ctrls.totBusLat                 1384165000                       # Total ticks spent in databus transfers
system.mem_ctrls.avgQLat                     15618.09                       # Average queueing delay per DRAM burst
system.mem_ctrls.avgBusLat                    5000.00                       # Average bus latency per DRAM burst
system.mem_ctrls.avgMemAccLat                34368.09                       # Average memory access latency per DRAM burst
system.mem_ctrls.avgRdBW                       144.30                       # Average DRAM read bandwidth in MiByte/s
system.mem_ctrls.avgWrBW                         3.12                       # Average achieved write bandwidth in MiByte/s
system.mem_ctrls.avgRdBWSys                    144.30                       # Average system read bandwidth in MiByte/s
system.mem_ctrls.avgWrBWSys                      3.13                       # Average system write bandwidth in MiByte/s
system.mem_ctrls.peakBW                      12800.00                       # Theoretical peak bandwidth in MiByte/s
system.mem_ctrls.busUtil                         1.15                       # Data bus utilization in percentage
system.mem_ctrls.busUtilRead                     1.13                       # Data bus utilization in percentage for reads
system.mem_ctrls.busUtilWrite                    0.02                       # Data bus utilization in percentage for writes
system.mem_ctrls.avgRdQLen                       1.01                       # Average read queue length when enqueuing
system.mem_ctrls.avgWrQLen                      13.80                       # Average write queue length when enqueuing
system.mem_ctrls.readRowHits                   244302                       # Number of row buffer hits during reads
system.mem_ctrls.writeRowHits                     610                       # Number of row buffer hits during writes
system.mem_ctrls.readRowHitRate                 88.25                       # Row buffer hit rate for reads
system.mem_ctrls.writeRowHitRate                10.15                       # Row buffer hit rate for writes
system.mem_ctrls.avgGap                     434098.53                       # Average gap between requests
system.mem_ctrls.pageHitRate                    86.59                       # Row buffer hit rate, read and write combined
system.mem_ctrls_0.actEnergy                135917040                       # Energy for activate commands per rank (pJ)
system.mem_ctrls_0.preEnergy                 72230235                       # Energy for precharge commands per rank (pJ)
system.mem_ctrls_0.readEnergy               989932440                       # Energy for read commands per rank (pJ)
system.mem_ctrls_0.writeEnergy               15310260                       # Energy for write commands per rank (pJ)
system.mem_ctrls_0.refreshEnergy         3150644640.000000                       # Energy for refresh commands per rank (pJ)
system.mem_ctrls_0.actBackEnergy           2516022750                       # Energy for active background per rank (pJ)
system.mem_ctrls_0.preBackEnergy            160859040                       # Energy for precharge background per rank (pJ)
system.mem_ctrls_0.actPowerDownEnergy     12398532840                       # Energy for active power-down per rank (pJ)
system.mem_ctrls_0.prePowerDownEnergy      2673746400                       # Energy for precharge power-down per rank (pJ)
system.mem_ctrls_0.selfRefreshEnergy      20207041080                       # Energy for self refresh per rank (pJ)
system.mem_ctrls_0.totalEnergy            42322431885                       # Total energy per rank (pJ)
system.mem_ctrls_0.averagePower            344.687608                       # Core power per rank (mW)
system.mem_ctrls_0.totalIdleTime         116843438500                       # Total Idle time Per DRAM Rank
system.mem_ctrls_0.memoryStateTime::IDLE    230194500                       # Time in different power states
system.mem_ctrls_0.memoryStateTime::REF    1332760000                       # Time in different power states
system.mem_ctrls_0.memoryStateTime::SREF  82690881250                       # Time in different power states
system.mem_ctrls_0.memoryStateTime::PRE_PDN   6962753500                       # Time in different power states
system.mem_ctrls_0.memoryStateTime::ACT    4378463750                       # Time in different power states
system.mem_ctrls_0.memoryStateTime::ACT_PDN  27189842500                       # Time in different power states
system.mem_ctrls_1.actEnergy                134781780                       # Energy for activate commands per rank (pJ)
system.mem_ctrls_1.preEnergy                 71634420                       # Energy for precharge commands per rank (pJ)
system.mem_ctrls_1.readEnergy               986655180                       # Energy for read commands per rank (pJ)
system.mem_ctrls_1.writeEnergy               15967980                       # Energy for write commands per rank (pJ)
system.mem_ctrls_1.refreshEnergy         3292011840.000000                       # Energy for refresh commands per rank (pJ)
system.mem_ctrls_1.actBackEnergy           2522739060                       # Energy for active background per rank (pJ)
system.mem_ctrls_1.preBackEnergy            172719840                       # Energy for precharge background per rank (pJ)
system.mem_ctrls_1.actPowerDownEnergy     12746460840                       # Energy for active power-down per rank (pJ)
system.mem_ctrls_1.prePowerDownEnergy      3060629760                       # Energy for precharge power-down per rank (pJ)
system.mem_ctrls_1.selfRefreshEnergy      19820872680                       # Energy for self refresh per rank (pJ)
system.mem_ctrls_1.totalEnergy            42826161630                       # Total energy per rank (pJ)
system.mem_ctrls_1.averagePower            348.790146                       # Core power per rank (mW)
system.mem_ctrls_1.totalIdleTime         116798835750                       # Total Idle time Per DRAM Rank
system.mem_ctrls_1.memoryStateTime::IDLE    255663000                       # Time in different power states
system.mem_ctrls_1.memoryStateTime::REF    1392560000                       # Time in different power states
system.mem_ctrls_1.memoryStateTime::SREF  80875869000                       # Time in different power states
system.mem_ctrls_1.memoryStateTime::PRE_PDN   7970474750                       # Time in different power states
system.mem_ctrls_1.memoryStateTime::ACT    4337398500                       # Time in different power states
system.mem_ctrls_1.memoryStateTime::ACT_PDN  27952930250                       # Time in different power states
system.ruby.clk_domain.clock                      500                       # Clock period in ticks
system.ruby.phys_mem.pwrStateResidencyTicks::UNDEFINED 122784895500                       # Cumulative time (in ticks) in various power states
system.ruby.phys_mem.bytes_read::cpu0.workload.drivers.device.hsapp          192                       # Number of bytes read from this memory
system.ruby.phys_mem.bytes_read::cpu0.workload.drivers.device          260                       # Number of bytes read from this memory
system.ruby.phys_mem.bytes_read::cpu0.inst    781193584                       # Number of bytes read from this memory
system.ruby.phys_mem.bytes_read::cpu0.data    129751006                       # Number of bytes read from this memory
system.ruby.phys_mem.bytes_read::cpu1.inst   1047945208                       # Number of bytes read from this memory
system.ruby.phys_mem.bytes_read::cpu1.data    304524808                       # Number of bytes read from this memory
system.ruby.phys_mem.bytes_read::cpu2.CUs0.ComputeUnit       402432                       # Number of bytes read from this memory
system.ruby.phys_mem.bytes_read::cpu2.CUs1.ComputeUnit       415008                       # Number of bytes read from this memory
system.ruby.phys_mem.bytes_read::cpu2.CUs2.ComputeUnit       396144                       # Number of bytes read from this memory
system.ruby.phys_mem.bytes_read::cpu2.CUs3.ComputeUnit       396144                       # Number of bytes read from this memory
system.ruby.phys_mem.bytes_read::total     2265024786                       # Number of bytes read from this memory
system.ruby.phys_mem.bytes_inst_read::cpu0.inst    781193584                       # Number of instructions bytes read from this memory
system.ruby.phys_mem.bytes_inst_read::cpu1.inst   1047945208                       # Number of instructions bytes read from this memory
system.ruby.phys_mem.bytes_inst_read::cpu2.CUs0.ComputeUnit       196608                       # Number of instructions bytes read from this memory
system.ruby.phys_mem.bytes_inst_read::cpu2.CUs1.ComputeUnit       202752                       # Number of instructions bytes read from this memory
system.ruby.phys_mem.bytes_inst_read::cpu2.CUs2.ComputeUnit       193536                       # Number of instructions bytes read from this memory
system.ruby.phys_mem.bytes_inst_read::cpu2.CUs3.ComputeUnit       193536                       # Number of instructions bytes read from this memory
system.ruby.phys_mem.bytes_inst_read::total   1829925224                       # Number of instructions bytes read from this memory
system.ruby.phys_mem.bytes_written::cpu0.workload.drivers.device.hsapp           24                       # Number of bytes written to this memory
system.ruby.phys_mem.bytes_written::cpu0.workload.drivers.device            8                       # Number of bytes written to this memory
system.ruby.phys_mem.bytes_written::cpu0.data     70622441                       # Number of bytes written to this memory
system.ruby.phys_mem.bytes_written::cpu1.data     20659019                       # Number of bytes written to this memory
system.ruby.phys_mem.bytes_written::cpu2.CUs0.ComputeUnit         5056                       # Number of bytes written to this memory
system.ruby.phys_mem.bytes_written::cpu2.CUs1.ComputeUnit         5408                       # Number of bytes written to this memory
system.ruby.phys_mem.bytes_written::cpu2.CUs2.ComputeUnit         5336                       # Number of bytes written to this memory
system.ruby.phys_mem.bytes_written::cpu2.CUs3.ComputeUnit         4328                       # Number of bytes written to this memory
system.ruby.phys_mem.bytes_written::total     91301620                       # Number of bytes written to this memory
system.ruby.phys_mem.num_reads::cpu0.workload.drivers.device.hsapp            3                       # Number of read requests responded to by this memory
system.ruby.phys_mem.num_reads::cpu0.workload.drivers.device            5                       # Number of read requests responded to by this memory
system.ruby.phys_mem.num_reads::cpu0.inst     97649198                       # Number of read requests responded to by this memory
system.ruby.phys_mem.num_reads::cpu0.data     19702440                       # Number of read requests responded to by this memory
system.ruby.phys_mem.num_reads::cpu1.inst    130993151                       # Number of read requests responded to by this memory
system.ruby.phys_mem.num_reads::cpu1.data     42341030                       # Number of read requests responded to by this memory
system.ruby.phys_mem.num_reads::cpu2.CUs0.ComputeUnit        53760                       # Number of read requests responded to by this memory
system.ruby.phys_mem.num_reads::cpu2.CUs1.ComputeUnit        55440                       # Number of read requests responded to by this memory
system.ruby.phys_mem.num_reads::cpu2.CUs2.ComputeUnit        52920                       # Number of read requests responded to by this memory
system.ruby.phys_mem.num_reads::cpu2.CUs3.ComputeUnit        52920                       # Number of read requests responded to by this memory
system.ruby.phys_mem.num_reads::total       290900867                       # Number of read requests responded to by this memory
system.ruby.phys_mem.num_writes::cpu0.workload.drivers.device.hsapp            3                       # Number of write requests responded to by this memory
system.ruby.phys_mem.num_writes::cpu0.workload.drivers.device            1                       # Number of write requests responded to by this memory
system.ruby.phys_mem.num_writes::cpu0.data     10170117                       # Number of write requests responded to by this memory
system.ruby.phys_mem.num_writes::cpu1.data      2582615                       # Number of write requests responded to by this memory
system.ruby.phys_mem.num_writes::cpu2.CUs0.ComputeUnit         1264                       # Number of write requests responded to by this memory
system.ruby.phys_mem.num_writes::cpu2.CUs1.ComputeUnit         1352                       # Number of write requests responded to by this memory
system.ruby.phys_mem.num_writes::cpu2.CUs2.ComputeUnit         1334                       # Number of write requests responded to by this memory
system.ruby.phys_mem.num_writes::cpu2.CUs3.ComputeUnit         1082                       # Number of write requests responded to by this memory
system.ruby.phys_mem.num_writes::total       12757768                       # Number of write requests responded to by this memory
system.ruby.phys_mem.bw_read::cpu0.workload.drivers.device.hsapp         1564                       # Total read bandwidth from this memory (bytes/s)
system.ruby.phys_mem.bw_read::cpu0.workload.drivers.device         2118                       # Total read bandwidth from this memory (bytes/s)
system.ruby.phys_mem.bw_read::cpu0.inst    6362293838                       # Total read bandwidth from this memory (bytes/s)
system.ruby.phys_mem.bw_read::cpu0.data    1056734263                       # Total read bandwidth from this memory (bytes/s)
system.ruby.phys_mem.bw_read::cpu1.inst    8534805554                       # Total read bandwidth from this memory (bytes/s)
system.ruby.phys_mem.bw_read::cpu1.data    2480148774                       # Total read bandwidth from this memory (bytes/s)
system.ruby.phys_mem.bw_read::cpu2.CUs0.ComputeUnit      3277537                       # Total read bandwidth from this memory (bytes/s)
system.ruby.phys_mem.bw_read::cpu2.CUs1.ComputeUnit      3379960                       # Total read bandwidth from this memory (bytes/s)
system.ruby.phys_mem.bw_read::cpu2.CUs2.ComputeUnit      3226325                       # Total read bandwidth from this memory (bytes/s)
system.ruby.phys_mem.bw_read::cpu2.CUs3.ComputeUnit      3226325                       # Total read bandwidth from this memory (bytes/s)
system.ruby.phys_mem.bw_read::total       18447096255                       # Total read bandwidth from this memory (bytes/s)
system.ruby.phys_mem.bw_inst_read::cpu0.inst   6362293838                       # Instruction read bandwidth from this memory (bytes/s)
system.ruby.phys_mem.bw_inst_read::cpu1.inst   8534805554                       # Instruction read bandwidth from this memory (bytes/s)
system.ruby.phys_mem.bw_inst_read::cpu2.CUs0.ComputeUnit      1601239                       # Instruction read bandwidth from this memory (bytes/s)
system.ruby.phys_mem.bw_inst_read::cpu2.CUs1.ComputeUnit      1651278                       # Instruction read bandwidth from this memory (bytes/s)
system.ruby.phys_mem.bw_inst_read::cpu2.CUs2.ComputeUnit      1576220                       # Instruction read bandwidth from this memory (bytes/s)
system.ruby.phys_mem.bw_inst_read::cpu2.CUs3.ComputeUnit      1576220                       # Instruction read bandwidth from this memory (bytes/s)
system.ruby.phys_mem.bw_inst_read::total  14903504348                       # Instruction read bandwidth from this memory (bytes/s)
system.ruby.phys_mem.bw_write::cpu0.workload.drivers.device.hsapp          195                       # Write bandwidth from this memory (bytes/s)
system.ruby.phys_mem.bw_write::cpu0.workload.drivers.device           65                       # Write bandwidth from this memory (bytes/s)
system.ruby.phys_mem.bw_write::cpu0.data    575172058                       # Write bandwidth from this memory (bytes/s)
system.ruby.phys_mem.bw_write::cpu1.data    168253749                       # Write bandwidth from this memory (bytes/s)
system.ruby.phys_mem.bw_write::cpu2.CUs0.ComputeUnit        41178                       # Write bandwidth from this memory (bytes/s)
system.ruby.phys_mem.bw_write::cpu2.CUs1.ComputeUnit        44045                       # Write bandwidth from this memory (bytes/s)
system.ruby.phys_mem.bw_write::cpu2.CUs2.ComputeUnit        43458                       # Write bandwidth from this memory (bytes/s)
system.ruby.phys_mem.bw_write::cpu2.CUs3.ComputeUnit        35249                       # Write bandwidth from this memory (bytes/s)
system.ruby.phys_mem.bw_write::total        743589996                       # Write bandwidth from this memory (bytes/s)
system.ruby.phys_mem.bw_total::cpu0.workload.drivers.device.hsapp         1759                       # Total bandwidth to/from this memory (bytes/s)
system.ruby.phys_mem.bw_total::cpu0.workload.drivers.device         2183                       # Total bandwidth to/from this memory (bytes/s)
system.ruby.phys_mem.bw_total::cpu0.inst   6362293838                       # Total bandwidth to/from this memory (bytes/s)
system.ruby.phys_mem.bw_total::cpu0.data   1631906320                       # Total bandwidth to/from this memory (bytes/s)
system.ruby.phys_mem.bw_total::cpu1.inst   8534805554                       # Total bandwidth to/from this memory (bytes/s)
system.ruby.phys_mem.bw_total::cpu1.data   2648402523                       # Total bandwidth to/from this memory (bytes/s)
system.ruby.phys_mem.bw_total::cpu2.CUs0.ComputeUnit      3318714                       # Total bandwidth to/from this memory (bytes/s)
system.ruby.phys_mem.bw_total::cpu2.CUs1.ComputeUnit      3424004                       # Total bandwidth to/from this memory (bytes/s)
system.ruby.phys_mem.bw_total::cpu2.CUs2.ComputeUnit      3269783                       # Total bandwidth to/from this memory (bytes/s)
system.ruby.phys_mem.bw_total::cpu2.CUs3.ComputeUnit      3261574                       # Total bandwidth to/from this memory (bytes/s)
system.ruby.phys_mem.bw_total::total      19190686252                       # Total bandwidth to/from this memory (bytes/s)
system.pwrStateResidencyTicks::UNDEFINED 122784895500                       # Cumulative time (in ticks) in various power states
system.cpu0.clk_domain.voltage_domain.voltage            1                       # Voltage in Volts
system.cpu0.clk_domain.clock                      500                       # Clock period in ticks
system.cpu0.dtb.walker.pwrStateResidencyTicks::UNDEFINED 122784895500                       # Cumulative time (in ticks) in various power states
system.cpu0.dtb.rdAccesses                   19702440                       # TLB accesses on read requests
system.cpu0.dtb.wrAccesses                   10170120                       # TLB accesses on write requests
system.cpu0.dtb.rdMisses                       125069                       # TLB misses on read requests
system.cpu0.dtb.wrMisses                         8032                       # TLB misses on write requests
system.cpu0.apic_clk_domain.clock                8000                       # Clock period in ticks
system.cpu0.interrupts.pwrStateResidencyTicks::UNDEFINED 122784895500                       # Cumulative time (in ticks) in various power states
system.cpu0.itb.walker.pwrStateResidencyTicks::UNDEFINED 122784895500                       # Cumulative time (in ticks) in various power states
system.cpu0.itb.rdAccesses                          0                       # TLB accesses on read requests
system.cpu0.itb.wrAccesses                   97649199                       # TLB accesses on write requests
system.cpu0.itb.rdMisses                            0                       # TLB misses on read requests
system.cpu0.itb.wrMisses                         3071                       # TLB misses on write requests
system.cpu0.workload.drivers.device.dispatcher.num_kernel_launched            1                       # number of kernel launched
system.cpu0.workload.drivers.device.dispatcher.cycles_wait_dispatch          953                       # number of cycles with outstanding wavefronts that are waiting to be dispatched
system.cpu0.workload.drivers.device.hsapp.pwrStateResidencyTicks::UNDEFINED 122784895500                       # Cumulative time (in ticks) in various power states
system.cpu0.workload.drivers.device.pwrStateResidencyTicks::UNDEFINED 122784895500                       # Cumulative time (in ticks) in various power states
system.cpu0.workload.numSyscalls               181322                       # Number of system calls
system.cpu0.numPwrStateTransitions                  2                       # Number of power state transitions
system.cpu0.pwrStateClkGateDist::samples            1                       # Distribution of time spent in the clock gated state
system.cpu0.pwrStateClkGateDist::mean        14446000                       # Distribution of time spent in the clock gated state
system.cpu0.pwrStateClkGateDist::1000-5e+10            1    100.00%    100.00% # Distribution of time spent in the clock gated state
system.cpu0.pwrStateClkGateDist::min_value     14446000                       # Distribution of time spent in the clock gated state
system.cpu0.pwrStateClkGateDist::max_value     14446000                       # Distribution of time spent in the clock gated state
system.cpu0.pwrStateClkGateDist::total              1                       # Distribution of time spent in the clock gated state
system.cpu0.pwrStateResidencyTicks::ON   122770449500                       # Cumulative time (in ticks) in various power states
system.cpu0.pwrStateResidencyTicks::CLK_GATED     14446000                       # Cumulative time (in ticks) in various power states
system.cpu0.numCycles                       245569791                       # number of cpu cycles simulated
system.cpu0.numWorkItemsStarted                     0                       # number of work items this cpu started
system.cpu0.numWorkItemsCompleted                   0                       # number of work items this cpu completed
system.cpu0.committedInsts                   72388779                       # Number of instructions committed
system.cpu0.committedOps                    142290688                       # Number of ops (including micro ops) committed
system.cpu0.num_int_alu_accesses            137944608                       # Number of integer alu accesses
system.cpu0.num_fp_alu_accesses               6894444                       # Number of float alu accesses
system.cpu0.num_vec_alu_accesses                    0                       # Number of vector alu accesses
system.cpu0.num_func_calls                    2253004                       # number of times a function call or return occured
system.cpu0.num_conditional_control_insts     13818612                       # number of instructions that are conditional controls
system.cpu0.num_int_insts                   137944608                       # number of integer instructions
system.cpu0.num_fp_insts                      6894444                       # number of float instructions
system.cpu0.num_vec_insts                           0                       # number of vector instructions
system.cpu0.num_int_register_reads          265586740                       # number of times the integer registers were read
system.cpu0.num_int_register_writes         108521903                       # number of times the integer registers were written
system.cpu0.num_fp_register_reads             9950524                       # number of times the floating registers were read
system.cpu0.num_fp_register_writes            4883649                       # number of times the floating registers were written
system.cpu0.num_vec_register_reads                  0                       # number of times the vector registers were read
system.cpu0.num_vec_register_writes                 0                       # number of times the vector registers were written
system.cpu0.num_cc_register_reads            85414626                       # number of times the CC registers were read
system.cpu0.num_cc_register_writes           43519246                       # number of times the CC registers were written
system.cpu0.num_mem_refs                     29868596                       # number of memory refs
system.cpu0.num_load_insts                   19698670                       # Number of load instructions
system.cpu0.num_store_insts                  10169926                       # Number of store instructions
system.cpu0.num_idle_cycles              28892.000000                       # Number of idle cycles
system.cpu0.num_busy_cycles              245540899.000000                       # Number of busy cycles
system.cpu0.not_idle_fraction                0.999882                       # Percentage of non-idle cycles
system.cpu0.idle_fraction                    0.000118                       # Percentage of idle cycles
system.cpu0.Branches                         18234148                       # Number of branches fetched
system.cpu0.op_class::No_OpClass               395368      0.28%      0.28% # Class of executed instruction
system.cpu0.op_class::IntAlu                107372339     75.46%     75.74% # Class of executed instruction
system.cpu0.op_class::IntMult                  513392      0.36%     76.10% # Class of executed instruction
system.cpu0.op_class::IntDiv                   134312      0.09%     76.19% # Class of executed instruction
system.cpu0.op_class::FloatAdd                  40713      0.03%     76.22% # Class of executed instruction
system.cpu0.op_class::FloatCmp                      7      0.00%     76.22% # Class of executed instruction
system.cpu0.op_class::FloatCvt                   8400      0.01%     76.23% # Class of executed instruction
system.cpu0.op_class::FloatMult                     8      0.00%     76.23% # Class of executed instruction
system.cpu0.op_class::FloatMultAcc                  0      0.00%     76.23% # Class of executed instruction
system.cpu0.op_class::FloatDiv                      7      0.00%     76.23% # Class of executed instruction
system.cpu0.op_class::FloatMisc                     0      0.00%     76.23% # Class of executed instruction
system.cpu0.op_class::FloatSqrt                     0      0.00%     76.23% # Class of executed instruction
system.cpu0.op_class::SimdAdd                   53364      0.04%     76.26% # Class of executed instruction
system.cpu0.op_class::SimdAddAcc                    0      0.00%     76.26% # Class of executed instruction
system.cpu0.op_class::SimdAlu                 1155785      0.81%     77.08% # Class of executed instruction
system.cpu0.op_class::SimdCmp                    1226      0.00%     77.08% # Class of executed instruction
system.cpu0.op_class::SimdCvt                  185894      0.13%     77.21% # Class of executed instruction
system.cpu0.op_class::SimdMisc                 905897      0.64%     77.85% # Class of executed instruction
system.cpu0.op_class::SimdMult                      0      0.00%     77.85% # Class of executed instruction
system.cpu0.op_class::SimdMultAcc                   0      0.00%     77.85% # Class of executed instruction
system.cpu0.op_class::SimdShift                 33489      0.02%     77.87% # Class of executed instruction
system.cpu0.op_class::SimdShiftAcc                  0      0.00%     77.87% # Class of executed instruction
system.cpu0.op_class::SimdSqrt                      0      0.00%     77.87% # Class of executed instruction
system.cpu0.op_class::SimdFloatAdd             180202      0.13%     78.00% # Class of executed instruction
system.cpu0.op_class::SimdFloatAlu                  0      0.00%     78.00% # Class of executed instruction
system.cpu0.op_class::SimdFloatCmp                  0      0.00%     78.00% # Class of executed instruction
system.cpu0.op_class::SimdFloatCvt            1081267      0.76%     78.76% # Class of executed instruction
system.cpu0.op_class::SimdFloatDiv                  6      0.00%     78.76% # Class of executed instruction
system.cpu0.op_class::SimdFloatMisc                 0      0.00%     78.76% # Class of executed instruction
system.cpu0.op_class::SimdFloatMult            360416      0.25%     79.01% # Class of executed instruction
system.cpu0.op_class::SimdFloatMultAcc              0      0.00%     79.01% # Class of executed instruction
system.cpu0.op_class::SimdFloatSqrt                 0      0.00%     79.01% # Class of executed instruction
system.cpu0.op_class::MemRead                18361683     12.90%     91.91% # Class of executed instruction
system.cpu0.op_class::MemWrite                9019189      6.34%     98.25% # Class of executed instruction
system.cpu0.op_class::FloatMemRead            1336987      0.94%     99.19% # Class of executed instruction
system.cpu0.op_class::FloatMemWrite           1150737      0.81%    100.00% # Class of executed instruction
system.cpu0.op_class::IprAccess                     0      0.00%    100.00% # Class of executed instruction
system.cpu0.op_class::InstPrefetch                  0      0.00%    100.00% # Class of executed instruction
system.cpu0.op_class::total                 142290688                       # Class of executed instruction
system.cpu1.clk_domain.voltage_domain.voltage            1                       # Voltage in Volts
system.cpu1.clk_domain.clock                      500                       # Clock period in ticks
system.cpu1.dtb.walker.pwrStateResidencyTicks::UNDEFINED 122784895500                       # Cumulative time (in ticks) in various power states
system.cpu1.dtb.rdAccesses                   42341030                       # TLB accesses on read requests
system.cpu1.dtb.wrAccesses                    2582615                       # TLB accesses on write requests
system.cpu1.dtb.rdMisses                          208                       # TLB misses on read requests
system.cpu1.dtb.wrMisses                            7                       # TLB misses on write requests
system.cpu1.apic_clk_domain.clock                8000                       # Clock period in ticks
system.cpu1.interrupts.pwrStateResidencyTicks::UNDEFINED 122784895500                       # Cumulative time (in ticks) in various power states
system.cpu1.itb.walker.pwrStateResidencyTicks::UNDEFINED 122784895500                       # Cumulative time (in ticks) in various power states
system.cpu1.itb.rdAccesses                          0                       # TLB accesses on read requests
system.cpu1.itb.wrAccesses                  130993151                       # TLB accesses on write requests
system.cpu1.itb.rdMisses                            0                       # TLB misses on read requests
system.cpu1.itb.wrMisses                          127                       # TLB misses on write requests
system.cpu1.pwrStateResidencyTicks::ON   122784895500                       # Cumulative time (in ticks) in various power states
system.cpu1.numCycles                       245121553                       # number of cpu cycles simulated
system.cpu1.numWorkItemsStarted                     0                       # number of work items this cpu started
system.cpu1.numWorkItemsCompleted                   0                       # number of work items this cpu completed
system.cpu1.committedInsts                   97518549                       # Number of instructions committed
system.cpu1.committedOps                    182864511                       # Number of ops (including micro ops) committed
system.cpu1.num_int_alu_accesses            178501635                       # Number of integer alu accesses
system.cpu1.num_fp_alu_accesses               7270892                       # Number of float alu accesses
system.cpu1.num_vec_alu_accesses                    0                       # Number of vector alu accesses
system.cpu1.num_func_calls                    5160881                       # number of times a function call or return occured
system.cpu1.num_conditional_control_insts     20971127                       # number of instructions that are conditional controls
system.cpu1.num_int_insts                   178501635                       # number of integer instructions
system.cpu1.num_fp_insts                      7270892                       # number of float instructions
system.cpu1.num_vec_insts                           0                       # number of vector instructions
system.cpu1.num_int_register_reads          344174715                       # number of times the integer registers were read
system.cpu1.num_int_register_writes         144298799                       # number of times the integer registers were written
system.cpu1.num_fp_register_reads            10906373                       # number of times the floating registers were read
system.cpu1.num_fp_register_writes            6543547                       # number of times the floating registers were written
system.cpu1.num_vec_register_reads                  0                       # number of times the vector registers were read
system.cpu1.num_vec_register_writes                 0                       # number of times the vector registers were written
system.cpu1.num_cc_register_reads           150509466                       # number of times the CC registers were read
system.cpu1.num_cc_register_writes           60336472                       # number of times the CC registers were written
system.cpu1.num_mem_refs                     44923645                       # number of memory refs
system.cpu1.num_load_insts                   42341030                       # Number of load instructions
system.cpu1.num_store_insts                   2582615                       # Number of store instructions
system.cpu1.num_idle_cycles              69384769.541227                       # Number of idle cycles
system.cpu1.num_busy_cycles              175736783.458773                       # Number of busy cycles
system.cpu1.not_idle_fraction                0.716937                       # Percentage of non-idle cycles
system.cpu1.idle_fraction                    0.283063                       # Percentage of idle cycles
system.cpu1.Branches                         28712441                       # Number of branches fetched
system.cpu1.op_class::No_OpClass                  399      0.00%      0.00% # Class of executed instruction
system.cpu1.op_class::IntAlu                132850884     72.65%     72.65% # Class of executed instruction
system.cpu1.op_class::IntMult                       0      0.00%     72.65% # Class of executed instruction
system.cpu1.op_class::IntDiv                       86      0.00%     72.65% # Class of executed instruction
system.cpu1.op_class::FloatAdd                     41      0.00%     72.65% # Class of executed instruction
system.cpu1.op_class::FloatCmp                      0      0.00%     72.65% # Class of executed instruction
system.cpu1.op_class::FloatCvt                     80      0.00%     72.65% # Class of executed instruction
system.cpu1.op_class::FloatMult                     0      0.00%     72.65% # Class of executed instruction
system.cpu1.op_class::FloatMultAcc                  0      0.00%     72.65% # Class of executed instruction
system.cpu1.op_class::FloatDiv                      0      0.00%     72.65% # Class of executed instruction
system.cpu1.op_class::FloatMisc                     0      0.00%     72.65% # Class of executed instruction
system.cpu1.op_class::FloatSqrt                     0      0.00%     72.65% # Class of executed instruction
system.cpu1.op_class::SimdAdd                     248      0.00%     72.65% # Class of executed instruction
system.cpu1.op_class::SimdAddAcc                    0      0.00%     72.65% # Class of executed instruction
system.cpu1.op_class::SimdAlu                 1454005      0.80%     73.45% # Class of executed instruction
system.cpu1.op_class::SimdCmp                       0      0.00%     73.45% # Class of executed instruction
system.cpu1.op_class::SimdCvt                     496      0.00%     73.45% # Class of executed instruction
system.cpu1.op_class::SimdMisc                 727109      0.40%     73.84% # Class of executed instruction
system.cpu1.op_class::SimdMult                      0      0.00%     73.84% # Class of executed instruction
system.cpu1.op_class::SimdMultAcc                   0      0.00%     73.84% # Class of executed instruction
system.cpu1.op_class::SimdShift                    94      0.00%     73.84% # Class of executed instruction
system.cpu1.op_class::SimdShiftAcc                  0      0.00%     73.84% # Class of executed instruction
system.cpu1.op_class::SimdSqrt                      0      0.00%     73.84% # Class of executed instruction
system.cpu1.op_class::SimdFloatAdd             726853      0.40%     74.24% # Class of executed instruction
system.cpu1.op_class::SimdFloatAlu                  0      0.00%     74.24% # Class of executed instruction
system.cpu1.op_class::SimdFloatCmp                  0      0.00%     74.24% # Class of executed instruction
system.cpu1.op_class::SimdFloatCvt            1453710      0.79%     75.04% # Class of executed instruction
system.cpu1.op_class::SimdFloatDiv                  4      0.00%     75.04% # Class of executed instruction
system.cpu1.op_class::SimdFloatMisc                 0      0.00%     75.04% # Class of executed instruction
system.cpu1.op_class::SimdFloatMult            726857      0.40%     75.43% # Class of executed instruction
system.cpu1.op_class::SimdFloatMultAcc              0      0.00%     75.43% # Class of executed instruction
system.cpu1.op_class::SimdFloatSqrt                 0      0.00%     75.43% # Class of executed instruction
system.cpu1.op_class::MemRead                40159815     21.96%     97.39% # Class of executed instruction
system.cpu1.op_class::MemWrite                2582447      1.41%     98.81% # Class of executed instruction
system.cpu1.op_class::FloatMemRead            2181215      1.19%    100.00% # Class of executed instruction
system.cpu1.op_class::FloatMemWrite               168      0.00%    100.00% # Class of executed instruction
system.cpu1.op_class::IprAccess                     0      0.00%    100.00% # Class of executed instruction
system.cpu1.op_class::InstPrefetch                  0      0.00%    100.00% # Class of executed instruction
system.cpu1.op_class::total                 182864511                       # Class of executed instruction
system.cpu2.clk_domain.voltage_domain.voltage            1                       # Voltage in Volts
system.cpu2.clk_domain.clock                     1000                       # Clock period in ticks
system.cpu2.CUs0.localDataStore.pwrStateResidencyTicks::UNDEFINED 122784895500                       # Cumulative time (in ticks) in various power states
system.cpu2.CUs0.scalar_register_file0.register_reads         7800                       # Total number of DWORDs read from register file
system.cpu2.CUs0.scalar_register_file0.register_writes         7930                       # Total number of DWORDS written to register file
system.cpu2.CUs0.scalar_register_file0.sram_reads            0                       # Total number of register file bank SRAM activations for reads
system.cpu2.CUs0.scalar_register_file0.sram_writes            0                       # Total number of register file bank SRAM activations for writes
system.cpu2.CUs0.scalar_register_file1.register_reads         7800                       # Total number of DWORDs read from register file
system.cpu2.CUs0.scalar_register_file1.register_writes         7930                       # Total number of DWORDS written to register file
system.cpu2.CUs0.scalar_register_file1.sram_reads            0                       # Total number of register file bank SRAM activations for reads
system.cpu2.CUs0.scalar_register_file1.sram_writes            0                       # Total number of register file bank SRAM activations for writes
system.cpu2.CUs0.scalar_register_file2.register_reads         7800                       # Total number of DWORDs read from register file
system.cpu2.CUs0.scalar_register_file2.register_writes         7930                       # Total number of DWORDS written to register file
system.cpu2.CUs0.scalar_register_file2.sram_reads            0                       # Total number of register file bank SRAM activations for reads
system.cpu2.CUs0.scalar_register_file2.sram_writes            0                       # Total number of register file bank SRAM activations for writes
system.cpu2.CUs0.scalar_register_file3.register_reads         7320                       # Total number of DWORDs read from register file
system.cpu2.CUs0.scalar_register_file3.register_writes         7442                       # Total number of DWORDS written to register file
system.cpu2.CUs0.scalar_register_file3.sram_reads            0                       # Total number of register file bank SRAM activations for reads
system.cpu2.CUs0.scalar_register_file3.sram_writes            0                       # Total number of register file bank SRAM activations for writes
system.cpu2.CUs0.vector_register_file0.register_reads       497053                       # Total number of DWORDs read from register file
system.cpu2.CUs0.vector_register_file0.register_writes       333898                       # Total number of DWORDS written to register file
system.cpu2.CUs0.vector_register_file0.sram_reads       125586                       # Total number of register file bank SRAM activations for reads
system.cpu2.CUs0.vector_register_file0.sram_writes        84196                       # Total number of register file bank SRAM activations for writes
system.cpu2.CUs0.vector_register_file1.register_reads       496613                       # Total number of DWORDs read from register file
system.cpu2.CUs0.vector_register_file1.register_writes       333658                       # Total number of DWORDS written to register file
system.cpu2.CUs0.vector_register_file1.sram_reads       124948                       # Total number of register file bank SRAM activations for reads
system.cpu2.CUs0.vector_register_file1.sram_writes        83848                       # Total number of register file bank SRAM activations for writes
system.cpu2.CUs0.vector_register_file2.register_reads       496778                       # Total number of DWORDs read from register file
system.cpu2.CUs0.vector_register_file2.register_writes       333748                       # Total number of DWORDS written to register file
system.cpu2.CUs0.vector_register_file2.sram_reads       125234                       # Total number of register file bank SRAM activations for reads
system.cpu2.CUs0.vector_register_file2.sram_writes        84004                       # Total number of register file bank SRAM activations for writes
system.cpu2.CUs0.vector_register_file3.register_reads       466204                       # Total number of DWORDs read from register file
system.cpu2.CUs0.vector_register_file3.register_writes       313208                       # Total number of DWORDS written to register file
system.cpu2.CUs0.vector_register_file3.sram_reads       117409                       # Total number of register file bank SRAM activations for reads
system.cpu2.CUs0.vector_register_file3.sram_writes        78770                       # Total number of register file bank SRAM activations for writes
system.cpu2.CUs0.wavefronts00.num_instr_executed         2227                       # number of instructions executed by this WF slot
system.cpu2.CUs0.wavefronts00.sch_cycles        24780                       # number of cycles spent in schedule stage
system.cpu2.CUs0.wavefronts00.sch_stalls        22553                       # number of cycles WF is stalled in SCH stage
system.cpu2.CUs0.wavefronts00.sch_rf_access_stalls            0                       # number of cycles wave selected in SCH but RF denied adding instruction
system.cpu2.CUs0.wavefronts00.sch_resource_stalls        18150                       # number of cycles stalled in sch by resource not available
system.cpu2.CUs0.wavefronts00.sch_opd_nrdy_stalls            0                       # number of cycles stalled in sch waiting for RF reads to complete
system.cpu2.CUs0.wavefronts00.sch_lds_arb_stalls            0                       # number of cycles wave stalled due to LDS-VRF arbitration
system.cpu2.CUs0.wavefronts00.timesBlockedDueWAXDependencies            0                       # number of times the wf's instructions are blocked due to WAW or WAR dependencies
system.cpu2.CUs0.wavefronts00.timesBlockedDueRAWDependencies         4393                       # number of times the wf's instructions are blocked due to RAW dependencies
system.cpu2.CUs0.wavefronts00.vec_raw_distance::samples         2210                       # Count of RAW distance in dynamic instructions for this WF
system.cpu2.CUs0.wavefronts00.vec_raw_distance::mean    39.538462                       # Count of RAW distance in dynamic instructions for this WF
system.cpu2.CUs0.wavefronts00.vec_raw_distance::stdev   223.066173                       # Count of RAW distance in dynamic instructions for this WF
system.cpu2.CUs0.wavefronts00.vec_raw_distance::underflows            0      0.00%      0.00% # Count of RAW distance in dynamic instructions for this WF
system.cpu2.CUs0.wavefronts00.vec_raw_distance::0            0      0.00%      0.00% # Count of RAW distance in dynamic instructions for this WF
system.cpu2.CUs0.wavefronts00.vec_raw_distance::1          493     22.31%     22.31% # Count of RAW distance in dynamic instructions for this WF
system.cpu2.CUs0.wavefronts00.vec_raw_distance::2          425     19.23%     41.54% # Count of RAW distance in dynamic instructions for this WF
system.cpu2.CUs0.wavefronts00.vec_raw_distance::3          289     13.08%     54.62% # Count of RAW distance in dynamic instructions for this WF
system.cpu2.CUs0.wavefronts00.vec_raw_distance::4          221     10.00%     64.62% # Count of RAW distance in dynamic instructions for this WF
system.cpu2.CUs0.wavefronts00.vec_raw_distance::5          102      4.62%     69.23% # Count of RAW distance in dynamic instructions for this WF
system.cpu2.CUs0.wavefronts00.vec_raw_distance::6          102      4.62%     73.85% # Count of RAW distance in dynamic instructions for this WF
system.cpu2.CUs0.wavefronts00.vec_raw_distance::7           51      2.31%     76.15% # Count of RAW distance in dynamic instructions for this WF
system.cpu2.CUs0.wavefronts00.vec_raw_distance::8           68      3.08%     79.23% # Count of RAW distance in dynamic instructions for this WF
system.cpu2.CUs0.wavefronts00.vec_raw_distance::9           68      3.08%     82.31% # Count of RAW distance in dynamic instructions for this WF
system.cpu2.CUs0.wavefronts00.vec_raw_distance::10           34      1.54%     83.85% # Count of RAW distance in dynamic instructions for this WF
system.cpu2.CUs0.wavefronts00.vec_raw_distance::11           17      0.77%     84.62% # Count of RAW distance in dynamic instructions for this WF
system.cpu2.CUs0.wavefronts00.vec_raw_distance::12           34      1.54%     86.15% # Count of RAW distance in dynamic instructions for this WF
system.cpu2.CUs0.wavefronts00.vec_raw_distance::13           51      2.31%     88.46% # Count of RAW distance in dynamic instructions for this WF
system.cpu2.CUs0.wavefronts00.vec_raw_distance::14            0      0.00%     88.46% # Count of RAW distance in dynamic instructions for this WF
system.cpu2.CUs0.wavefronts00.vec_raw_distance::15            0      0.00%     88.46% # Count of RAW distance in dynamic instructions for this WF
system.cpu2.CUs0.wavefronts00.vec_raw_distance::16           17      0.77%     89.23% # Count of RAW distance in dynamic instructions for this WF
system.cpu2.CUs0.wavefronts00.vec_raw_distance::17           34      1.54%     90.77% # Count of RAW distance in dynamic instructions for this WF
system.cpu2.CUs0.wavefronts00.vec_raw_distance::18            0      0.00%     90.77% # Count of RAW distance in dynamic instructions for this WF
system.cpu2.CUs0.wavefronts00.vec_raw_distance::19           34      1.54%     92.31% # Count of RAW distance in dynamic instructions for this WF
system.cpu2.CUs0.wavefronts00.vec_raw_distance::20           17      0.77%     93.08% # Count of RAW distance in dynamic instructions for this WF
system.cpu2.CUs0.wavefronts00.vec_raw_distance::overflows          153      6.92%    100.00% # Count of RAW distance in dynamic instructions for this WF
system.cpu2.CUs0.wavefronts00.vec_raw_distance::min_value            1                       # Count of RAW distance in dynamic instructions for this WF
system.cpu2.CUs0.wavefronts00.vec_raw_distance::max_value         2177                       # Count of RAW distance in dynamic instructions for this WF
system.cpu2.CUs0.wavefronts00.vec_raw_distance::total         2210                       # Count of RAW distance in dynamic instructions for this WF
system.cpu2.CUs0.wavefronts00.vec_reads_per_write::samples         1496                       # Count of Vector reads per write for this WF
system.cpu2.CUs0.wavefronts00.vec_reads_per_write::mean     1.477273                       # Count of Vector reads per write for this WF
system.cpu2.CUs0.wavefronts00.vec_reads_per_write::stdev     0.879049                       # Count of Vector reads per write for this WF
system.cpu2.CUs0.wavefronts00.vec_reads_per_write::underflows            0      0.00%      0.00% # Count of Vector reads per write for this WF
system.cpu2.CUs0.wavefronts00.vec_reads_per_write::0            0      0.00%      0.00% # Count of Vector reads per write for this WF
system.cpu2.CUs0.wavefronts00.vec_reads_per_write::1         1037     69.32%     69.32% # Count of Vector reads per write for this WF
system.cpu2.CUs0.wavefronts00.vec_reads_per_write::2          306     20.45%     89.77% # Count of Vector reads per write for this WF
system.cpu2.CUs0.wavefronts00.vec_reads_per_write::3           85      5.68%     95.45% # Count of Vector reads per write for this WF
system.cpu2.CUs0.wavefronts00.vec_reads_per_write::4           34      2.27%     97.73% # Count of Vector reads per write for this WF
system.cpu2.CUs0.wavefronts00.vec_reads_per_write::overflows           34      2.27%    100.00% # Count of Vector reads per write for this WF
system.cpu2.CUs0.wavefronts00.vec_reads_per_write::min_value            1                       # Count of Vector reads per write for this WF
system.cpu2.CUs0.wavefronts00.vec_reads_per_write::max_value            5                       # Count of Vector reads per write for this WF
system.cpu2.CUs0.wavefronts00.vec_reads_per_write::total         1496                       # Count of Vector reads per write for this WF
system.cpu2.CUs0.wavefronts01.num_instr_executed         2096                       # number of instructions executed by this WF slot
system.cpu2.CUs0.wavefronts01.sch_cycles        20912                       # number of cycles spent in schedule stage
system.cpu2.CUs0.wavefronts01.sch_stalls        18816                       # number of cycles WF is stalled in SCH stage
system.cpu2.CUs0.wavefronts01.sch_rf_access_stalls            0                       # number of cycles wave selected in SCH but RF denied adding instruction
system.cpu2.CUs0.wavefronts01.sch_resource_stalls        15053                       # number of cycles stalled in sch by resource not available
system.cpu2.CUs0.wavefronts01.sch_opd_nrdy_stalls            0                       # number of cycles stalled in sch waiting for RF reads to complete
system.cpu2.CUs0.wavefronts01.sch_lds_arb_stalls            0                       # number of cycles wave stalled due to LDS-VRF arbitration
system.cpu2.CUs0.wavefronts01.timesBlockedDueWAXDependencies            0                       # number of times the wf's instructions are blocked due to WAW or WAR dependencies
system.cpu2.CUs0.wavefronts01.timesBlockedDueRAWDependencies         4153                       # number of times the wf's instructions are blocked due to RAW dependencies
system.cpu2.CUs0.wavefronts01.vec_raw_distance::samples         2080                       # Count of RAW distance in dynamic instructions for this WF
system.cpu2.CUs0.wavefronts01.vec_raw_distance::mean    37.523077                       # Count of RAW distance in dynamic instructions for this WF
system.cpu2.CUs0.wavefronts01.vec_raw_distance::stdev   209.952328                       # Count of RAW distance in dynamic instructions for this WF
system.cpu2.CUs0.wavefronts01.vec_raw_distance::underflows            0      0.00%      0.00% # Count of RAW distance in dynamic instructions for this WF
system.cpu2.CUs0.wavefronts01.vec_raw_distance::0            0      0.00%      0.00% # Count of RAW distance in dynamic instructions for this WF
system.cpu2.CUs0.wavefronts01.vec_raw_distance::1          464     22.31%     22.31% # Count of RAW distance in dynamic instructions for this WF
system.cpu2.CUs0.wavefronts01.vec_raw_distance::2          400     19.23%     41.54% # Count of RAW distance in dynamic instructions for this WF
system.cpu2.CUs0.wavefronts01.vec_raw_distance::3          272     13.08%     54.62% # Count of RAW distance in dynamic instructions for this WF
[...]
system.ruby.CorePair_Controller.L1I_Repl       114254      0.00%      0.00%
system.ruby.CorePair_Controller.L1D0_Repl      2524551      0.00%      0.00%
system.ruby.CorePair_Controller.L1D1_Repl           18      0.00%      0.00%
system.ruby.CorePair_Controller.L2_Repl        257459      0.00%      0.00%
system.ruby.CorePair_Controller.L2_to_L1D0      2237634      0.00%      0.00%
system.ruby.CorePair_Controller.L2_to_L1D1          349      0.00%      0.00%
system.ruby.CorePair_Controller.L2_to_L1I       105696      0.00%      0.00%
system.ruby.CorePair_Controller.PrbInvData         4154      0.00%      0.00%
system.ruby.CorePair_Controller.PrbShrData         4259      0.00%      0.00%
system.ruby.CorePair_Controller.I.C0_Load_L1miss        69812      0.00%      0.00%
system.ruby.CorePair_Controller.I.C1_Load_L1miss          233      0.00%      0.00%
system.ruby.CorePair_Controller.I.Ifetch0_L1miss        10950      0.00%      0.00%
system.ruby.CorePair_Controller.I.Ifetch1_L1miss          255      0.00%      0.00%
system.ruby.CorePair_Controller.I.C0_Store_L1miss       209524      0.00%      0.00%
system.ruby.CorePair_Controller.I.C1_Store_L1miss           86      0.00%      0.00%
system.ruby.CorePair_Controller.I.PrbInvData         3339      0.00%      0.00%
system.ruby.CorePair_Controller.I.PrbShrData           17      0.00%      0.00%
system.ruby.CorePair_Controller.S.C0_Load_L1miss            4      0.00%      0.00%
system.ruby.CorePair_Controller.S.C0_Load_L1hit            6      0.00%      0.00%
system.ruby.CorePair_Controller.S.Ifetch0_L1hit     97532577      0.00%      0.00%
system.ruby.CorePair_Controller.S.Ifetch1_L1hit    130992856      0.00%      0.00%
system.ruby.CorePair_Controller.S.Ifetch0_L1miss       105656      0.00%      0.00%
system.ruby.CorePair_Controller.S.Ifetch1_L1miss           40      0.00%      0.00%
system.ruby.CorePair_Controller.S.L1I_Repl       114254      0.00%      0.00%
system.ruby.CorePair_Controller.S.L1D0_Repl            4      0.00%      0.00%
system.ruby.CorePair_Controller.S.L2_Repl         7655      0.00%      0.00%
system.ruby.CorePair_Controller.E0.C0_Load_L1miss      2135118      0.00%      0.00%
system.ruby.CorePair_Controller.E0.C0_Load_L1hit      2766840      0.00%      0.00%
system.ruby.CorePair_Controller.E0.C1_Load_L1miss          268      0.00%      0.00%
system.ruby.CorePair_Controller.E0.Ifetch0_L1miss           15      0.00%      0.00%
system.ruby.CorePair_Controller.E0.C0_Store_L1miss          416      0.00%      0.00%
system.ruby.CorePair_Controller.E0.C0_Store_L1hit        10700      0.00%      0.00%
system.ruby.CorePair_Controller.E0.C1_Store_L1miss            1      0.00%      0.00%
system.ruby.CorePair_Controller.E0.L1D0_Repl      2193618      0.00%      0.00%
system.ruby.CorePair_Controller.E0.L2_Repl        55074      0.00%      0.00%
system.ruby.CorePair_Controller.E0.PrbInvData            2      0.00%      0.00%
system.ruby.CorePair_Controller.E1.C0_Load_L1miss           48      0.00%      0.00%
system.ruby.CorePair_Controller.E1.C1_Load_L1miss            2      0.00%      0.00%
system.ruby.CorePair_Controller.E1.C1_Load_L1hit     11563179      0.00%      0.00%
system.ruby.CorePair_Controller.E1.C0_Store_L1miss            5      0.00%      0.00%
system.ruby.CorePair_Controller.E1.C1_Store_L1hit           33      0.00%      0.00%
system.ruby.CorePair_Controller.E1.L1D1_Repl            8      0.00%      0.00%
system.ruby.CorePair_Controller.E1.L2_Repl          121      0.00%      0.00%
system.ruby.CorePair_Controller.Es.C0_Load_L1miss         1899      0.00%      0.00%
system.ruby.CorePair_Controller.Es.C0_Load_L1hit       107817      0.00%      0.00%
system.ruby.CorePair_Controller.Es.C1_Load_L1miss            3      0.00%      0.00%
system.ruby.CorePair_Controller.Es.C1_Load_L1hit      1988603      0.00%      0.00%
system.ruby.CorePair_Controller.Es.C0_Store_L1hit           12      0.00%      0.00%
system.ruby.CorePair_Controller.Es.C1_Store_L1hit            5      0.00%      0.00%
system.ruby.CorePair_Controller.Es.L1D0_Repl         2044      0.00%      0.00%
system.ruby.CorePair_Controller.Es.L1D1_Repl            8      0.00%      0.00%
system.ruby.CorePair_Controller.Es.L2_Repl          156      0.00%      0.00%
system.ruby.CorePair_Controller.O.C0_Store_L1miss            1      0.00%      0.00%
system.ruby.CorePair_Controller.O.L1D0_Repl           16      0.00%      0.00%
system.ruby.CorePair_Controller.O.L2_Repl          278      0.00%      0.00%
system.ruby.CorePair_Controller.O.PrbInvData          813      0.00%      0.00%
system.ruby.CorePair_Controller.O.PrbShrData          125      0.00%      0.00%
system.ruby.CorePair_Controller.Ms.C0_Load_L1miss           73      0.00%      0.00%
system.ruby.CorePair_Controller.Ms.C0_Load_L1hit        17570      0.00%      0.00%
system.ruby.CorePair_Controller.Ms.C1_Load_L1hit      2694283      0.00%      0.00%
system.ruby.CorePair_Controller.Ms.C0_Store_L1hit           37      0.00%      0.00%
system.ruby.CorePair_Controller.Ms.C1_Store_L1hit           31      0.00%      0.00%
system.ruby.CorePair_Controller.Ms.L1D0_Repl           99      0.00%      0.00%
system.ruby.CorePair_Controller.Ms.L2_Repl           29      0.00%      0.00%
system.ruby.CorePair_Controller.M0.C0_Load_L1miss       100459      0.00%      0.00%
system.ruby.CorePair_Controller.M0.C0_Load_L1hit     14092898      0.00%      0.00%
system.ruby.CorePair_Controller.M0.C1_Load_L1miss           76      0.00%      0.00%
system.ruby.CorePair_Controller.M0.C0_Store_L1miss         8244      0.00%      0.00%
system.ruby.CorePair_Controller.M0.C0_Store_L1hit     10351034      0.00%      0.00%
system.ruby.CorePair_Controller.M0.C1_Store_L1miss           12      0.00%      0.00%
system.ruby.CorePair_Controller.M0.L1D0_Repl       328770      0.00%      0.00%
system.ruby.CorePair_Controller.M0.L2_Repl       194041      0.00%      0.00%
system.ruby.CorePair_Controller.M0.PrbShrData         4117      0.00%      0.00%
system.ruby.CorePair_Controller.M1.C0_Load_L1miss           33      0.00%      0.00%
system.ruby.CorePair_Controller.M1.C1_Load_L1hit     26094278      0.00%      0.00%
system.ruby.CorePair_Controller.M1.C0_Store_L1miss            7      0.00%      0.00%
system.ruby.CorePair_Controller.M1.C1_Store_L1hit      2582550      0.00%      0.00%
system.ruby.CorePair_Controller.M1.L1D1_Repl            2      0.00%      0.00%
system.ruby.CorePair_Controller.M1.L2_Repl          105      0.00%      0.00%
system.ruby.CorePair_Controller.I_M0.NB_AckM       209524      0.00%      0.00%
system.ruby.CorePair_Controller.I_M1.NB_AckM           86      0.00%      0.00%
system.ruby.CorePair_Controller.I_E0S.NB_AckE        69812      0.00%      0.00%
system.ruby.CorePair_Controller.I_E1S.NB_AckE          233      0.00%      0.00%
system.ruby.CorePair_Controller.ES_I.C1_Load_L1miss          309      0.00%      0.00%
system.ruby.CorePair_Controller.ES_I.Ifetch1_L1miss          270      0.00%      0.00%
system.ruby.CorePair_Controller.ES_I.NB_AckWB        63006      0.00%      0.00%
system.ruby.CorePair_Controller.MO_I.C1_Load_L1miss          189      0.00%      0.00%
system.ruby.CorePair_Controller.MO_I.NB_AckWB       194453      0.00%      0.00%
system.ruby.CorePair_Controller.S_F0.L2_to_L1D0            4      0.00%      0.00%
system.ruby.CorePair_Controller.Si_F0.L2_to_L1I       105656      0.00%      0.00%
system.ruby.CorePair_Controller.Si_F1.L2_to_L1I           40      0.00%      0.00%
system.ruby.CorePair_Controller.O_M0.NB_AckM            1      0.00%      0.00%
system.ruby.CorePair_Controller.S0.NB_AckS        10965      0.00%      0.00%
system.ruby.CorePair_Controller.S1.NB_AckS          255      0.00%      0.00%
system.ruby.CorePair_Controller.Es_F0.L2_to_L1D0         1899      0.00%      0.00%
system.ruby.CorePair_Controller.Es_F1.L2_to_L1D1            3      0.00%      0.00%
system.ruby.CorePair_Controller.E0_F.L2_to_L1D0      2135118      0.00%      0.00%
system.ruby.CorePair_Controller.E1_F.L2_to_L1D1            2      0.00%      0.00%
system.ruby.CorePair_Controller.E0_Es.L2_to_L1D1          268      0.00%      0.00%
system.ruby.CorePair_Controller.E1_Es.C1_Load_L1hit            2      0.00%      0.00%
system.ruby.CorePair_Controller.E1_Es.L2_to_L1D0           48      0.00%      0.00%
system.ruby.CorePair_Controller.Ms_F0.L2_to_L1D0           73      0.00%      0.00%
system.ruby.CorePair_Controller.M0_F.L2_to_L1D0       100459      0.00%      0.00%
system.ruby.CorePair_Controller.M0_Ms.L2_to_L1D1           76      0.00%      0.00%
system.ruby.CorePair_Controller.M1_Ms.L2_to_L1D0           33      0.00%      0.00%
system.ruby.Directory_Controller.RdBlkS         11221      0.00%      0.00%
system.ruby.Directory_Controller.RdBlkM        209611      0.00%      0.00%
system.ruby.Directory_Controller.RdBlk          74296      0.00%      0.00%
system.ruby.Directory_Controller.WriteThrough         4897      0.00%      0.00%
system.ruby.Directory_Controller.VicDirty       194453      0.00%      0.00%
system.ruby.Directory_Controller.VicClean        63006      0.00%      0.00%
system.ruby.Directory_Controller.CPUData       257459      0.00%      0.00%
system.ruby.Directory_Controller.CPUPrbResp       299301      0.00%      0.00%
system.ruby.Directory_Controller.ProbeAcksComplete       299289      0.00%      0.00%
system.ruby.Directory_Controller.L3Hit          22444      0.00%      0.00%
system.ruby.Directory_Controller.MemData       276841      0.00%      0.00%
system.ruby.Directory_Controller.WBAck           6009      0.00%      0.00%
system.ruby.Directory_Controller.CoreUnblock       295126      0.00%      0.00%
system.ruby.Directory_Controller.UnblockWriteThrough         4150      0.00%      0.00%
system.ruby.Directory_Controller.DmaRead            8      0.00%      0.00%
system.ruby.Directory_Controller.DmaWrite            4      0.00%      0.00%
system.ruby.Directory_Controller.U.RdBlkS        11220      0.00%      0.00%
system.ruby.Directory_Controller.U.RdBlkM       209611      0.00%      0.00%
system.ruby.Directory_Controller.U.RdBlk        74296      0.00%      0.00%
system.ruby.Directory_Controller.U.WriteThrough         4150      0.00%      0.00%
system.ruby.Directory_Controller.U.VicDirty       194453      0.00%      0.00%
system.ruby.Directory_Controller.U.VicClean        63006      0.00%      0.00%
system.ruby.Directory_Controller.U.WBAck         6009      0.00%      0.00%
system.ruby.Directory_Controller.U.DmaRead            8      0.00%      0.00%
system.ruby.Directory_Controller.U.DmaWrite            4      0.00%      0.00%
system.ruby.Directory_Controller.BL.RdBlkS            1      0.00%      0.00%
system.ruby.Directory_Controller.BL.CPUData       257459      0.00%      0.00%
system.ruby.Directory_Controller.BDR_M.MemData            1      0.00%      0.00%
system.ruby.Directory_Controller.BS_M.MemData         7176      0.00%      0.00%
system.ruby.Directory_Controller.BM_M.WriteThrough          108      0.00%      0.00%
system.ruby.Directory_Controller.BM_M.MemData       210336      0.00%      0.00%
system.ruby.Directory_Controller.B_M.MemData        54919      0.00%      0.00%
system.ruby.Directory_Controller.BDR_PM.CPUPrbResp            9      0.00%      0.00%
system.ruby.Directory_Controller.BDR_PM.ProbeAcksComplete            1      0.00%      0.00%
system.ruby.Directory_Controller.BDR_PM.MemData            7      0.00%      0.00%
system.ruby.Directory_Controller.BS_PM.CPUPrbResp         7176      0.00%      0.00%
system.ruby.Directory_Controller.BS_PM.ProbeAcksComplete         7176      0.00%      0.00%
system.ruby.Directory_Controller.BS_PM.L3Hit         4039      0.00%      0.00%
system.ruby.Directory_Controller.BS_PM.MemData            5      0.00%      0.00%
system.ruby.Directory_Controller.BM_PM.WriteThrough          600      0.00%      0.00%
system.ruby.Directory_Controller.BM_PM.CPUPrbResp       210365      0.00%      0.00%
system.ruby.Directory_Controller.BM_PM.ProbeAcksComplete       210336      0.00%      0.00%
system.ruby.Directory_Controller.BM_PM.L3Hit         1121      0.00%      0.00%
system.ruby.Directory_Controller.BM_PM.MemData         2304      0.00%      0.00%
system.ruby.Directory_Controller.B_PM.CPUPrbResp        54949      0.00%      0.00%
system.ruby.Directory_Controller.B_PM.ProbeAcksComplete        54919      0.00%      0.00%
system.ruby.Directory_Controller.B_PM.L3Hit        17284      0.00%      0.00%
system.ruby.Directory_Controller.B_PM.MemData         2093      0.00%      0.00%
system.ruby.Directory_Controller.BDW_P.CPUPrbResp            8      0.00%      0.00%
system.ruby.Directory_Controller.BDW_P.ProbeAcksComplete            4      0.00%      0.00%
system.ruby.Directory_Controller.BDR_Pm.CPUPrbResp            7      0.00%      0.00%
system.ruby.Directory_Controller.BDR_Pm.ProbeAcksComplete            7      0.00%      0.00%
system.ruby.Directory_Controller.BS_Pm.CPUPrbResp         4044      0.00%      0.00%
system.ruby.Directory_Controller.BS_Pm.ProbeAcksComplete         4044      0.00%      0.00%
system.ruby.Directory_Controller.BM_Pm.WriteThrough           35      0.00%      0.00%
system.ruby.Directory_Controller.BM_Pm.CPUPrbResp         3396      0.00%      0.00%
system.ruby.Directory_Controller.BM_Pm.ProbeAcksComplete         3425      0.00%      0.00%
system.ruby.Directory_Controller.B_Pm.CPUPrbResp        19347      0.00%      0.00%
system.ruby.Directory_Controller.B_Pm.ProbeAcksComplete        19377      0.00%      0.00%
system.ruby.Directory_Controller.B.WriteThrough            4      0.00%      0.00%
system.ruby.Directory_Controller.B.CoreUnblock       295126      0.00%      0.00%
system.ruby.Directory_Controller.B.UnblockWriteThrough         4150      0.00%      0.00%
system.ruby.SQC_Controller.Fetch         |       12288     66.67%     66.67% |        6144     33.33%    100.00%
system.ruby.SQC_Controller.Fetch::total         18432                      
system.ruby.SQC_Controller.Data          |          12     85.71%     85.71% |           2     14.29%    100.00%
system.ruby.SQC_Controller.Data::total             14                      
system.ruby.SQC_Controller.I.Fetch       |          12     85.71%     85.71% |           2     14.29%    100.00%
system.ruby.SQC_Controller.I.Fetch::total           14                      
system.ruby.SQC_Controller.I.Data        |          12     85.71%     85.71% |           2     14.29%    100.00%
system.ruby.SQC_Controller.I.Data::total           14                      
system.ruby.SQC_Controller.V.Fetch       |       12276     66.65%     66.65% |        6142     33.35%    100.00%
system.ruby.SQC_Controller.V.Fetch::total        18418                      
system.ruby.TCC_Controller.RdBlk                 9740      0.00%      0.00%
system.ruby.TCC_Controller.WrVicBlk              4150      0.00%      0.00%
system.ruby.TCC_Controller.Data                  4251      0.00%      0.00%
system.ruby.TCC_Controller.L2_Repl                218      0.00%      0.00%
system.ruby.TCC_Controller.PrbInv              290888      0.00%      0.00%
system.ruby.TCC_Controller.WBAck                 4150      0.00%      0.00%
system.ruby.TCC_Controller.V.RdBlk               5472      0.00%      0.00%
system.ruby.TCC_Controller.V.WrVicBlk            2073      0.00%      0.00%
system.ruby.TCC_Controller.V.L2_Repl              218      0.00%      0.00%
system.ruby.TCC_Controller.V.WBAck               2073      0.00%      0.00%
system.ruby.TCC_Controller.I.RdBlk               4251      0.00%      0.00%
system.ruby.TCC_Controller.I.WrVicBlk            2077      0.00%      0.00%
system.ruby.TCC_Controller.I.PrbInv            290888      0.00%      0.00%
system.ruby.TCC_Controller.I.WBAck               2077      0.00%      0.00%
system.ruby.TCC_Controller.IV.RdBlk                17      0.00%      0.00%
system.ruby.TCC_Controller.IV.Data               4251      0.00%      0.00%
system.ruby.TCP_Controller.Load          |        5006     25.80%     25.80% |        5187     26.73%     52.53% |        4690     24.17%     76.70% |        4520     23.30%    100.00%
system.ruby.TCP_Controller.Load::total          19403                      
system.ruby.TCP_Controller.StoreThrough  |        1040     25.06%     25.06% |        1134     27.33%     52.39% |        1090     26.27%     78.65% |         886     21.35%    100.00%
system.ruby.TCP_Controller.StoreThrough::total         4150                      
system.ruby.TCP_Controller.Evict         |        1024     25.00%     25.00% |        1024     25.00%     50.00% |        1024     25.00%     75.00% |        1024     25.00%    100.00%
system.ruby.TCP_Controller.Evict::total          4096                      
system.ruby.TCP_Controller.Repl          |         998     21.92%     21.92% |        1087     23.87%     45.79% |        1201     26.38%     72.17% |        1267     27.83%    100.00%
system.ruby.TCP_Controller.Repl::total           4553                      
system.ruby.TCP_Controller.TCC_Ack       |        2306     23.71%     23.71% |        2416     24.84%     48.55% |        2480     25.50%     74.05% |        2524     25.95%    100.00%
system.ruby.TCP_Controller.TCC_Ack::total         9726                      
system.ruby.TCP_Controller.TCC_AckWB     |        1040     25.06%     25.06% |        1134     27.33%     52.39% |        1090     26.27%     78.65% |         886     21.35%    100.00%
system.ruby.TCP_Controller.TCC_AckWB::total         4150                      
system.ruby.TCP_Controller.I.Load        |        2306     23.71%     23.71% |        2416     24.84%     48.55% |        2480     25.50%     74.05% |        2524     25.95%    100.00%
system.ruby.TCP_Controller.I.Load::total         9726                      
system.ruby.TCP_Controller.I.StoreThrough |         669     24.53%     24.53% |         739     27.10%     51.63% |         733     26.88%     78.51% |         586     21.49%    100.00%
system.ruby.TCP_Controller.I.StoreThrough::total         2727                      
system.ruby.TCP_Controller.I.Evict       |        1024     25.00%     25.00% |        1024     25.00%     50.00% |        1024     25.00%     75.00% |        1024     25.00%    100.00%
system.ruby.TCP_Controller.I.Evict::total         4096                      
system.ruby.TCP_Controller.I.TCC_Ack     |        2306     23.71%     23.71% |        2416     24.84%     48.55% |        2480     25.50%     74.05% |        2524     25.95%    100.00%
system.ruby.TCP_Controller.I.TCC_Ack::total         9726                      
system.ruby.TCP_Controller.I.TCC_AckWB   |        1024     24.96%     24.96% |        1125     27.42%     52.38% |        1075     26.20%     78.58% |         879     21.42%    100.00%
system.ruby.TCP_Controller.I.TCC_AckWB::total         4103                      
system.ruby.TCP_Controller.V.Load        |        2700     27.90%     27.90% |        2771     28.63%     56.54% |        2210     22.84%     79.37% |        1996     20.63%    100.00%
system.ruby.TCP_Controller.V.Load::total         9677                      
system.ruby.TCP_Controller.V.StoreThrough |         371     26.07%     26.07% |         395     27.76%     53.83% |         357     25.09%     78.92% |         300     21.08%    100.00%
system.ruby.TCP_Controller.V.StoreThrough::total         1423                      
system.ruby.TCP_Controller.V.Repl        |         998     21.92%     21.92% |        1087     23.87%     45.79% |        1201     26.38%     72.17% |        1267     27.83%    100.00%
system.ruby.TCP_Controller.V.Repl::total         4553                      
system.ruby.TCP_Controller.V.TCC_AckWB   |          16     34.04%     34.04% |           9     19.15%     53.19% |          15     31.91%     85.11% |           7     14.89%    100.00%
system.ruby.TCP_Controller.V.TCC_AckWB::total           47                      

---------- End Simulation Statistics   ----------
