
---------- Begin Simulation Statistics ----------
sim_seconds                                  3.670420                       # Number of seconds simulated
sim_ticks                                3670419909500                       # Number of ticks simulated
final_tick                               3670419909500                       # Number of ticks from beginning of simulation (restored from checkpoints and never reset)
sim_freq                                 1000000000000                       # Frequency of simulated ticks
host_inst_rate                                 392122                       # Simulator instruction rate (inst/s)
host_op_rate                                   720992                       # Simulator op (including micro ops) rate (op/s)
host_tick_rate                              194803474                       # Simulator tick rate (ticks/s)
host_mem_usage                                1838540                       # Number of bytes of host memory used
host_seconds                                 18841.66                       # Real time elapsed on the host
sim_insts                                  7388222419                       # Number of instructions simulated
sim_ops                                   13584677949                       # Number of ops (including micro ops) simulated
system.voltage_domain.voltage                       1                       # Voltage in Volts
system.clk_domain.clock                          1000                       # Clock period in ticks
system.mem_ctrls.pwrStateResidencyTicks::UNDEFINED 3670419909500                       # Cumulative time (in ticks) in various power states
system.mem_ctrls.bytes_read::ruby.dir_cntrl0     51281216                       # Number of bytes read from this memory
system.mem_ctrls.bytes_read::total           51281216                       # Number of bytes read from this memory
system.mem_ctrls.bytes_written::ruby.dir_cntrl0     21057664                       # Number of bytes written to this memory
system.mem_ctrls.bytes_written::total        21057664                       # Number of bytes written to this memory
system.mem_ctrls.num_reads::ruby.dir_cntrl0       801269                       # Number of read requests responded to by this memory
system.mem_ctrls.num_reads::total              801269                       # Number of read requests responded to by this memory
system.mem_ctrls.num_writes::ruby.dir_cntrl0       329026                       # Number of write requests responded to by this memory
system.mem_ctrls.num_writes::total             329026                       # Number of write requests responded to by this memory
system.mem_ctrls.bw_read::ruby.dir_cntrl0     13971485                       # Total read bandwidth from this memory (bytes/s)
system.mem_ctrls.bw_read::total              13971485                       # Total read bandwidth from this memory (bytes/s)
system.mem_ctrls.bw_write::ruby.dir_cntrl0      5737127                       # Write bandwidth from this memory (bytes/s)
system.mem_ctrls.bw_write::total              5737127                       # Write bandwidth from this memory (bytes/s)
system.mem_ctrls.bw_total::ruby.dir_cntrl0     19708611                       # Total bandwidth to/from this memory (bytes/s)
system.mem_ctrls.bw_total::total             19708611                       # Total bandwidth to/from this memory (bytes/s)
system.mem_ctrls.readReqs                      801269                       # Number of read requests accepted
system.mem_ctrls.writeReqs                     329026                       # Number of write requests accepted
system.mem_ctrls.readBursts                    801269                       # Number of DRAM read bursts, including those serviced by the write queue
system.mem_ctrls.writeBursts                   329026                       # Number of DRAM write bursts, including those merged in the write queue
system.mem_ctrls.bytesReadDRAM               51278080                       # Total number of bytes read from DRAM
system.mem_ctrls.bytesReadWrQ                    3136                       # Total number of bytes read from write queue
system.mem_ctrls.bytesWritten                21056384                       # Total number of bytes written to DRAM
system.mem_ctrls.bytesReadSys                51281216                       # Total read bytes from the system interface side
system.mem_ctrls.bytesWrittenSys             21057664                       # Total written bytes from the system interface side
system.mem_ctrls.servicedByWrQ                     49                       # Number of DRAM read bursts serviced by the write queue
system.mem_ctrls.mergedWrBursts                     0                       # Number of DRAM write bursts merged with an existing one
system.mem_ctrls.neitherReadNorWriteReqs            0                       # Number of requests that are neither read nor write
system.mem_ctrls.perBankRdBursts::0             50218                       # Per bank write bursts
system.mem_ctrls.perBankRdBursts::1             49484                       # Per bank write bursts
system.mem_ctrls.perBankRdBursts::2             50247                       # Per bank write bursts
system.mem_ctrls.perBankRdBursts::3             50656                       # Per bank write bursts
system.mem_ctrls.perBankRdBursts::4             49928                       # Per bank write bursts
system.mem_ctrls.perBankRdBursts::5             50453                       # Per bank write bursts
system.mem_ctrls.perBankRdBursts::6             50438                       # Per bank write bursts
system.mem_ctrls.perBankRdBursts::7             50424                       # Per bank write bursts
system.mem_ctrls.perBankRdBursts::8             49968                       # Per bank write bursts
system.mem_ctrls.perBankRdBursts::9             49975                       # Per bank write bursts
system.mem_ctrls.perBankRdBursts::10            49937                       # Per bank write bursts
system.mem_ctrls.perBankRdBursts::11            50357                       # Per bank write bursts
system.mem_ctrls.perBankRdBursts::12            50037                       # Per bank write bursts
system.mem_ctrls.perBankRdBursts::13            49381                       # Per bank write bursts
system.mem_ctrls.perBankRdBursts::14            49904                       # Per bank write bursts
system.mem_ctrls.perBankRdBursts::15            49813                       # Per bank write bursts
system.mem_ctrls.perBankWrBursts::0             20681                       # Per bank write bursts
system.mem_ctrls.perBankWrBursts::1             20228                       # Per bank write bursts
system.mem_ctrls.perBankWrBursts::2             20578                       # Per bank write bursts
system.mem_ctrls.perBankWrBursts::3             20747                       # Per bank write bursts
system.mem_ctrls.perBankWrBursts::4             20357                       # Per bank write bursts
system.mem_ctrls.perBankWrBursts::5             20377                       # Per bank write bursts
system.mem_ctrls.perBankWrBursts::6             20195                       # Per bank write bursts
system.mem_ctrls.perBankWrBursts::7             20746                       # Per bank write bursts
system.mem_ctrls.perBankWrBursts::8             20652                       # Per bank write bursts
system.mem_ctrls.perBankWrBursts::9             20642                       # Per bank write bursts
system.mem_ctrls.perBankWrBursts::10            20634                       # Per bank write bursts
system.mem_ctrls.perBankWrBursts::11            21013                       # Per bank write bursts
system.mem_ctrls.perBankWrBursts::12            20827                       # Per bank write bursts
system.mem_ctrls.perBankWrBursts::13            20441                       # Per bank write bursts
system.mem_ctrls.perBankWrBursts::14            20370                       # Per bank write bursts
system.mem_ctrls.perBankWrBursts::15            20518                       # Per bank write bursts
system.mem_ctrls.numRdRetry                         0                       # Number of times read queue was full causing retry
system.mem_ctrls.numWrRetry                         0                       # Number of times write queue was full causing retry
system.mem_ctrls.totGap                  3670419783000                       # Total gap between requests
system.mem_ctrls.readPktSize::0                     0                       # Read request sizes (log2)
system.mem_ctrls.readPktSize::1                     0                       # Read request sizes (log2)
system.mem_ctrls.readPktSize::2                     0                       # Read request sizes (log2)
system.mem_ctrls.readPktSize::3                     0                       # Read request sizes (log2)
system.mem_ctrls.readPktSize::4                     0                       # Read request sizes (log2)
system.mem_ctrls.readPktSize::5                     0                       # Read request sizes (log2)
system.mem_ctrls.readPktSize::6                801269                       # Read request sizes (log2)
system.mem_ctrls.writePktSize::0                    0                       # Write request sizes (log2)
system.mem_ctrls.writePktSize::1                    0                       # Write request sizes (log2)
system.mem_ctrls.writePktSize::2                    0                       # Write request sizes (log2)
system.mem_ctrls.writePktSize::3                    0                       # Write request sizes (log2)
system.mem_ctrls.writePktSize::4                    0                       # Write request sizes (log2)
system.mem_ctrls.writePktSize::5                    0                       # Write request sizes (log2)
system.mem_ctrls.writePktSize::6               329026                       # Write request sizes (log2)
system.mem_ctrls.rdQLenPdf::0                  650598                       # What read queue length does an incoming req see
system.mem_ctrls.rdQLenPdf::1                    9859                       # What read queue length does an incoming req see
system.mem_ctrls.rdQLenPdf::2                    9403                       # What read queue length does an incoming req see
system.mem_ctrls.rdQLenPdf::3                    9943                       # What read queue length does an incoming req see
system.mem_ctrls.rdQLenPdf::4                   10004                       # What read queue length does an incoming req see
system.mem_ctrls.rdQLenPdf::5                    9573                       # What read queue length does an incoming req see
system.mem_ctrls.rdQLenPdf::6                    7717                       # What read queue length does an incoming req see
system.mem_ctrls.rdQLenPdf::7                    6855                       # What read queue length does an incoming req see
system.mem_ctrls.rdQLenPdf::8                    6309                       # What read queue length does an incoming req see
system.mem_ctrls.rdQLenPdf::9                    5782                       # What read queue length does an incoming req see
system.mem_ctrls.rdQLenPdf::10                   5969                       # What read queue length does an incoming req see
system.mem_ctrls.rdQLenPdf::11                   5765                       # What read queue length does an incoming req see
system.mem_ctrls.rdQLenPdf::12                   5004                       # What read queue length does an incoming req see
system.mem_ctrls.rdQLenPdf::13                   4489                       # What read queue length does an incoming req see
system.mem_ctrls.rdQLenPdf::14                   4533                       # What read queue length does an incoming req see
system.mem_ctrls.rdQLenPdf::15                   4405                       # What read queue length does an incoming req see
system.mem_ctrls.rdQLenPdf::16                   4154                       # What read queue length does an incoming req see
system.mem_ctrls.rdQLenPdf::17                   3870                       # What read queue length does an incoming req see
system.mem_ctrls.rdQLenPdf::18                   3430                       # What read queue length does an incoming req see
system.mem_ctrls.rdQLenPdf::19                   2954                       # What read queue length does an incoming req see
system.mem_ctrls.rdQLenPdf::20                   2819                       # What read queue length does an incoming req see
system.mem_ctrls.rdQLenPdf::21                   2724                       # What read queue length does an incoming req see
system.mem_ctrls.rdQLenPdf::22                   2320                       # What read queue length does an incoming req see
system.mem_ctrls.rdQLenPdf::23                   2062                       # What read queue length does an incoming req see
system.mem_ctrls.rdQLenPdf::24                   2147                       # What read queue length does an incoming req see
system.mem_ctrls.rdQLenPdf::25                   2156                       # What read queue length does an incoming req see
system.mem_ctrls.rdQLenPdf::26                   1919                       # What read queue length does an incoming req see
system.mem_ctrls.rdQLenPdf::27                   1527                       # What read queue length does an incoming req see
system.mem_ctrls.rdQLenPdf::28                   1372                       # What read queue length does an incoming req see
system.mem_ctrls.rdQLenPdf::29                   1291                       # What read queue length does an incoming req see
system.mem_ctrls.rdQLenPdf::30                   1254                       # What read queue length does an incoming req see
system.mem_ctrls.rdQLenPdf::31                   9013                       # What read queue length does an incoming req see
system.mem_ctrls.wrQLenPdf::0                       1                       # What write queue length does an incoming req see
system.mem_ctrls.wrQLenPdf::1                       1                       # What write queue length does an incoming req see
system.mem_ctrls.wrQLenPdf::2                       1                       # What write queue length does an incoming req see
system.mem_ctrls.wrQLenPdf::3                       1                       # What write queue length does an incoming req see
system.mem_ctrls.wrQLenPdf::4                       1                       # What write queue length does an incoming req see
system.mem_ctrls.wrQLenPdf::5                       1                       # What write queue length does an incoming req see
system.mem_ctrls.wrQLenPdf::6                       1                       # What write queue length does an incoming req see
system.mem_ctrls.wrQLenPdf::7                       1                       # What write queue length does an incoming req see
system.mem_ctrls.wrQLenPdf::8                       1                       # What write queue length does an incoming req see
system.mem_ctrls.wrQLenPdf::9                       1                       # What write queue length does an incoming req see
system.mem_ctrls.wrQLenPdf::10                      1                       # What write queue length does an incoming req see
system.mem_ctrls.wrQLenPdf::11                      1                       # What write queue length does an incoming req see
system.mem_ctrls.wrQLenPdf::12                      1                       # What write queue length does an incoming req see
system.mem_ctrls.wrQLenPdf::13                      1                       # What write queue length does an incoming req see
system.mem_ctrls.wrQLenPdf::14                      1                       # What write queue length does an incoming req see
system.mem_ctrls.wrQLenPdf::15                  16343                       # What write queue length does an incoming req see
system.mem_ctrls.wrQLenPdf::16                  16645                       # What write queue length does an incoming req see
system.mem_ctrls.wrQLenPdf::17                  17999                       # What write queue length does an incoming req see
system.mem_ctrls.wrQLenPdf::18                  18586                       # What write queue length does an incoming req see
system.mem_ctrls.wrQLenPdf::19                  18555                       # What write queue length does an incoming req see
system.mem_ctrls.wrQLenPdf::20                  18540                       # What write queue length does an incoming req see
system.mem_ctrls.wrQLenPdf::21                  18551                       # What write queue length does an incoming req see
system.mem_ctrls.wrQLenPdf::22                  18528                       # What write queue length does an incoming req see
system.mem_ctrls.wrQLenPdf::23                  18520                       # What write queue length does an incoming req see
system.mem_ctrls.wrQLenPdf::24                  18516                       # What write queue length does an incoming req see
system.mem_ctrls.wrQLenPdf::25                  18499                       # What write queue length does an incoming req see
system.mem_ctrls.wrQLenPdf::26                  18499                       # What write queue length does an incoming req see
system.mem_ctrls.wrQLenPdf::27                  18487                       # What write queue length does an incoming req see
system.mem_ctrls.wrQLenPdf::28                  18489                       # What write queue length does an incoming req see
system.mem_ctrls.wrQLenPdf::29                  18482                       # What write queue length does an incoming req see
system.mem_ctrls.wrQLenPdf::30                  18492                       # What write queue length does an incoming req see
system.mem_ctrls.wrQLenPdf::31                  18476                       # What write queue length does an incoming req see
system.mem_ctrls.wrQLenPdf::32                  18480                       # What write queue length does an incoming req see
system.mem_ctrls.wrQLenPdf::33                    259                       # What write queue length does an incoming req see
system.mem_ctrls.wrQLenPdf::34                     49                       # What write queue length does an incoming req see
system.mem_ctrls.wrQLenPdf::35                     13                       # What write queue length does an incoming req see
system.mem_ctrls.wrQLenPdf::36                      3                       # What write queue length does an incoming req see
system.mem_ctrls.wrQLenPdf::37                      0                       # What write queue length does an incoming req see
system.mem_ctrls.wrQLenPdf::38                      0                       # What write queue length does an incoming req see
system.mem_ctrls.wrQLenPdf::39                      0                       # What write queue length does an incoming req see
system.mem_ctrls.wrQLenPdf::40                      0                       # What write queue length does an incoming req see
system.mem_ctrls.wrQLenPdf::41                      0                       # What write queue length does an incoming req see
system.mem_ctrls.wrQLenPdf::42                      0                       # What write queue length does an incoming req see
system.mem_ctrls.wrQLenPdf::43                      0                       # What write queue length does an incoming req see
system.mem_ctrls.wrQLenPdf::44                      0                       # What write queue length does an incoming req see
system.mem_ctrls.wrQLenPdf::45                      0                       # What write queue length does an incoming req see
system.mem_ctrls.wrQLenPdf::46                      0                       # What write queue length does an incoming req see
system.mem_ctrls.wrQLenPdf::47                      0                       # What write queue length does an incoming req see
system.mem_ctrls.wrQLenPdf::48                      0                       # What write queue length does an incoming req see
system.mem_ctrls.wrQLenPdf::49                      0                       # What write queue length does an incoming req see
system.mem_ctrls.wrQLenPdf::50                      0                       # What write queue length does an incoming req see
system.mem_ctrls.wrQLenPdf::51                      0                       # What write queue length does an incoming req see
system.mem_ctrls.wrQLenPdf::52                      0                       # What write queue length does an incoming req see
system.mem_ctrls.wrQLenPdf::53                      0                       # What write queue length does an incoming req see
system.mem_ctrls.wrQLenPdf::54                      0                       # What write queue length does an incoming req see
system.mem_ctrls.wrQLenPdf::55                      0                       # What write queue length does an incoming req see
system.mem_ctrls.wrQLenPdf::56                      0                       # What write queue length does an incoming req see
system.mem_ctrls.wrQLenPdf::57                      0                       # What write queue length does an incoming req see
system.mem_ctrls.wrQLenPdf::58                      0                       # What write queue length does an incoming req see
system.mem_ctrls.wrQLenPdf::59                      0                       # What write queue length does an incoming req see
system.mem_ctrls.wrQLenPdf::60                      0                       # What write queue length does an incoming req see
system.mem_ctrls.wrQLenPdf::61                      0                       # What write queue length does an incoming req see
system.mem_ctrls.wrQLenPdf::62                      0                       # What write queue length does an incoming req see
system.mem_ctrls.wrQLenPdf::63                      0                       # What write queue length does an incoming req see
system.mem_ctrls.bytesPerActivate::samples       326610                       # Bytes accessed per row activation
system.mem_ctrls.bytesPerActivate::mean    221.466924                       # Bytes accessed per row activation
system.mem_ctrls.bytesPerActivate::gmean   125.283496                       # Bytes accessed per row activation
system.mem_ctrls.bytesPerActivate::stdev   284.074008                       # Bytes accessed per row activation
system.mem_ctrls.bytesPerActivate::0-127       198661     60.83%     60.83% # Bytes accessed per row activation
system.mem_ctrls.bytesPerActivate::128-255        43358     13.28%     74.10% # Bytes accessed per row activation
system.mem_ctrls.bytesPerActivate::256-383        19886      6.09%     80.19% # Bytes accessed per row activation
system.mem_ctrls.bytesPerActivate::384-511        14582      4.46%     84.65% # Bytes accessed per row activation
system.mem_ctrls.bytesPerActivate::512-639        11803      3.61%     88.27% # Bytes accessed per row activation
system.mem_ctrls.bytesPerActivate::640-767         7994      2.45%     90.71% # Bytes accessed per row activation
system.mem_ctrls.bytesPerActivate::768-895         4346      1.33%     92.05% # Bytes accessed per row activation
system.mem_ctrls.bytesPerActivate::896-1023         2545      0.78%     92.82% # Bytes accessed per row activation
system.mem_ctrls.bytesPerActivate::1024-1151        23435      7.18%    100.00% # Bytes accessed per row activation
system.mem_ctrls.bytesPerActivate::total       326610                       # Bytes accessed per row activation
system.mem_ctrls.rdPerTurnAround::samples        18462                       # Reads before turning the bus around for writes
system.mem_ctrls.rdPerTurnAround::mean      43.390857                       # Reads before turning the bus around for writes
system.mem_ctrls.rdPerTurnAround::stdev   1509.943862                       # Reads before turning the bus around for writes
system.mem_ctrls.rdPerTurnAround::0-8191        18460     99.99%     99.99% # Reads before turning the bus around for writes
system.mem_ctrls.rdPerTurnAround::81920-90111            1      0.01%     99.99% # Reads before turning the bus around for writes
system.mem_ctrls.rdPerTurnAround::180224-188415            1      0.01%    100.00% # Reads before turning the bus around for writes
system.mem_ctrls.rdPerTurnAround::total         18462                       # Reads before turning the bus around for writes
system.mem_ctrls.wrPerTurnAround::samples        18462                       # Writes before turning the bus around for reads
system.mem_ctrls.wrPerTurnAround::mean      17.820713                       # Writes before turning the bus around for reads
system.mem_ctrls.wrPerTurnAround::gmean     17.807663                       # Writes before turning the bus around for reads
system.mem_ctrls.wrPerTurnAround::stdev      0.667059                       # Writes before turning the bus around for reads
system.mem_ctrls.wrPerTurnAround::16             1894     10.26%     10.26% # Writes before turning the bus around for reads
system.mem_ctrls.wrPerTurnAround::17              215      1.16%     11.42% # Writes before turning the bus around for reads
system.mem_ctrls.wrPerTurnAround::18            15775     85.45%     96.87% # Writes before turning the bus around for reads
system.mem_ctrls.wrPerTurnAround::19              500      2.71%     99.58% # Writes before turning the bus around for reads
system.mem_ctrls.wrPerTurnAround::20               50      0.27%     99.85% # Writes before turning the bus around for reads
system.mem_ctrls.wrPerTurnAround::21               20      0.11%     99.96% # Writes before turning the bus around for reads
system.mem_ctrls.wrPerTurnAround::22                7      0.04%     99.99% # Writes before turning the bus around for reads
system.mem_ctrls.wrPerTurnAround::23                1      0.01%    100.00% # Writes before turning the bus around for reads
system.mem_ctrls.wrPerTurnAround::total         18462                       # Writes before turning the bus around for reads
system.mem_ctrls.totQLat                  54560515000                       # Total ticks spent queuing
system.mem_ctrls.totMemAccLat             69583390000                       # Total ticks spent from burst creation until serviced by the DRAM
system.mem_ctrls.totBusLat                 4006100000                       # Total ticks spent in databus transfers
system.mem_ctrls.avgQLat                     68096.80                       # Average queueing delay per DRAM burst
system.mem_ctrls.avgBusLat                    5000.00                       # Average bus latency per DRAM burst
system.mem_ctrls.avgMemAccLat                86846.80                       # Average memory access latency per DRAM burst
system.mem_ctrls.avgRdBW                        13.97                       # Average DRAM read bandwidth in MiByte/s
system.mem_ctrls.avgWrBW                         5.74                       # Average achieved write bandwidth in MiByte/s
system.mem_ctrls.avgRdBWSys                     13.97                       # Average system read bandwidth in MiByte/s
system.mem_ctrls.avgWrBWSys                      5.74                       # Average system write bandwidth in MiByte/s
system.mem_ctrls.peakBW                      12800.00                       # Theoretical peak bandwidth in MiByte/s
system.mem_ctrls.busUtil                         0.15                       # Data bus utilization in percentage
system.mem_ctrls.busUtilRead                     0.11                       # Data bus utilization in percentage for reads
system.mem_ctrls.busUtilWrite                    0.04                       # Data bus utilization in percentage for writes
system.mem_ctrls.avgRdQLen                       1.00                       # Average read queue length when enqueuing
system.mem_ctrls.avgWrQLen                      23.67                       # Average write queue length when enqueuing
system.mem_ctrls.readRowHits                   564190                       # Number of row buffer hits during reads
system.mem_ctrls.writeRowHits                  239421                       # Number of row buffer hits during writes
system.mem_ctrls.readRowHitRate                 70.42                       # Row buffer hit rate for reads
system.mem_ctrls.writeRowHitRate                72.77                       # Row buffer hit rate for writes
system.mem_ctrls.avgGap                    3247311.35                       # Average gap between requests
system.mem_ctrls.pageHitRate                    71.10                       # Row buffer hit rate, read and write combined
system.mem_ctrls_0.actEnergy               1164762480                       # Energy for activate commands per rank (pJ)
system.mem_ctrls_0.preEnergy                619078350                       # Energy for precharge commands per rank (pJ)
system.mem_ctrls_0.readEnergy              2869194720                       # Energy for read commands per rank (pJ)
system.mem_ctrls_0.writeEnergy              855604980                       # Energy for write commands per rank (pJ)
system.mem_ctrls_0.refreshEnergy         75146501040.000015                       # Energy for refresh commands per rank (pJ)
system.mem_ctrls_0.actBackEnergy          27543661410                       # Energy for active background per rank (pJ)
system.mem_ctrls_0.preBackEnergy           5407943040                       # Energy for precharge background per rank (pJ)
system.mem_ctrls_0.actPowerDownEnergy    188284107720                       # Energy for active power-down per rank (pJ)
system.mem_ctrls_0.prePowerDownEnergy    182280410400                       # Energy for precharge power-down per rank (pJ)
system.mem_ctrls_0.selfRefreshEnergy     670349829840                       # Energy for self refresh per rank (pJ)
system.mem_ctrls_0.totalEnergy           1154542950330                       # Total energy per rank (pJ)
system.mem_ctrls_0.averagePower            314.553370                       # Core power per rank (mW)
system.mem_ctrls_0.totalIdleTime         3595884129000                       # Total Idle time Per DRAM Rank
system.mem_ctrls_0.memoryStateTime::IDLE  10893638500                       # Time in different power states
system.mem_ctrls_0.memoryStateTime::REF   31787860000                       # Time in different power states
system.mem_ctrls_0.memoryStateTime::SREF 2708292310000                       # Time in different power states
system.mem_ctrls_0.memoryStateTime::PRE_PDN 474688565000                       # Time in different power states
system.mem_ctrls_0.memoryStateTime::ACT   31853803750                       # Time in different power states
system.mem_ctrls_0.memoryStateTime::ACT_PDN 412903732250                       # Time in different power states
system.mem_ctrls_1.actEnergy               1167268620                       # Energy for activate commands per rank (pJ)
system.mem_ctrls_1.preEnergy                620406600                       # Energy for precharge commands per rank (pJ)
system.mem_ctrls_1.readEnergy              2851516080                       # Energy for read commands per rank (pJ)
system.mem_ctrls_1.writeEnergy              861806340                       # Energy for write commands per rank (pJ)
system.mem_ctrls_1.refreshEnergy         75045085440.000015                       # Energy for refresh commands per rank (pJ)
system.mem_ctrls_1.actBackEnergy          27575771220                       # Energy for active background per rank (pJ)
system.mem_ctrls_1.preBackEnergy           5369188320                       # Energy for precharge background per rank (pJ)
system.mem_ctrls_1.actPowerDownEnergy    188018518500                       # Energy for active power-down per rank (pJ)
system.mem_ctrls_1.prePowerDownEnergy    182020522080                       # Energy for precharge power-down per rank (pJ)
system.mem_ctrls_1.selfRefreshEnergy     670640037240                       # Energy for self refresh per rank (pJ)
system.mem_ctrls_1.totalEnergy           1154189908260                       # Total energy per rank (pJ)
system.mem_ctrls_1.averagePower            314.457184                       # Core power per rank (mW)
system.mem_ctrls_1.totalIdleTime         3595919415500                       # Total Idle time Per DRAM Rank
system.mem_ctrls_1.memoryStateTime::IDLE  10816021250                       # Time in different power states
system.mem_ctrls_1.memoryStateTime::REF   31744960000                       # Time in different power states
system.mem_ctrls_1.memoryStateTime::SREF 2709586518250                       # Time in different power states
system.mem_ctrls_1.memoryStateTime::PRE_PDN 474011919000                       # Time in different power states
system.mem_ctrls_1.memoryStateTime::ACT   31939474000                       # Time in different power states
system.mem_ctrls_1.memoryStateTime::ACT_PDN 412321017000                       # Time in different power states
system.ruby.clk_domain.clock                      500                       # Clock period in ticks
system.ruby.phys_mem.pwrStateResidencyTicks::UNDEFINED 3670419909500                       # Cumulative time (in ticks) in various power states
system.ruby.phys_mem.bytes_read::cpu0.workload.drivers.device.hsapp          384                       # Number of bytes read from this memory
system.ruby.phys_mem.bytes_read::cpu0.workload.drivers.device         1040                       # Number of bytes read from this memory
system.ruby.phys_mem.bytes_read::cpu0.inst  35661410736                       # Number of bytes read from this memory
system.ruby.phys_mem.bytes_read::cpu0.data   5917023185                       # Number of bytes read from this memory
system.ruby.phys_mem.bytes_read::cpu1.inst  43242483864                       # Number of bytes read from this memory
system.ruby.phys_mem.bytes_read::cpu1.data  12646426477                       # Number of bytes read from this memory
system.ruby.phys_mem.bytes_read::cpu2.CUs0.ComputeUnit      7185692                       # Number of bytes read from this memory
system.ruby.phys_mem.bytes_read::cpu2.CUs1.ComputeUnit      7126844                       # Number of bytes read from this memory
system.ruby.phys_mem.bytes_read::cpu2.CUs2.ComputeUnit      7133600                       # Number of bytes read from this memory
system.ruby.phys_mem.bytes_read::cpu2.CUs3.ComputeUnit      7143564                       # Number of bytes read from this memory
system.ruby.phys_mem.bytes_read::total    97495935386                       # Number of bytes read from this memory
system.ruby.phys_mem.bytes_inst_read::cpu0.inst  35661410736                       # Number of instructions bytes read from this memory
system.ruby.phys_mem.bytes_inst_read::cpu1.inst  43242483864                       # Number of instructions bytes read from this memory
system.ruby.phys_mem.bytes_inst_read::cpu2.CUs0.ComputeUnit      2706944                       # Number of instructions bytes read from this memory
system.ruby.phys_mem.bytes_inst_read::cpu2.CUs1.ComputeUnit      2688192                       # Number of instructions bytes read from this memory
system.ruby.phys_mem.bytes_inst_read::cpu2.CUs2.ComputeUnit      2693248                       # Number of instructions bytes read from this memory
system.ruby.phys_mem.bytes_inst_read::cpu2.CUs3.ComputeUnit      2690496                       # Number of instructions bytes read from this memory
system.ruby.phys_mem.bytes_inst_read::total  78914673480                       # Number of instructions bytes read from this memory
system.ruby.phys_mem.bytes_written::cpu0.workload.drivers.device.hsapp           48                       # Number of bytes written to this memory
system.ruby.phys_mem.bytes_written::cpu0.workload.drivers.device           32                       # Number of bytes written to this memory
system.ruby.phys_mem.bytes_written::cpu0.data   4294631795                       # Number of bytes written to this memory
system.ruby.phys_mem.bytes_written::cpu1.data    864549651                       # Number of bytes written to this memory
system.ruby.phys_mem.bytes_written::cpu2.CUs0.ComputeUnit      1060720                       # Number of bytes written to this memory
system.ruby.phys_mem.bytes_written::cpu2.CUs1.ComputeUnit      1057644                       # Number of bytes written to this memory
system.ruby.phys_mem.bytes_written::cpu2.CUs2.ComputeUnit      1058048                       # Number of bytes written to this memory
system.ruby.phys_mem.bytes_written::cpu2.CUs3.ComputeUnit      1053136                       # Number of bytes written to this memory
system.ruby.phys_mem.bytes_written::total   5163411074                       # Number of bytes written to this memory
system.ruby.phys_mem.num_reads::cpu0.workload.drivers.device.hsapp            6                       # Number of read requests responded to by this memory
system.ruby.phys_mem.num_reads::cpu0.workload.drivers.device           20                       # Number of read requests responded to by this memory
system.ruby.phys_mem.num_reads::cpu0.inst   4457676342                       # Number of read requests responded to by this memory
system.ruby.phys_mem.num_reads::cpu0.data    950713129                       # Number of read requests responded to by this memory
system.ruby.phys_mem.num_reads::cpu1.inst   5405310483                       # Number of read requests responded to by this memory
system.ruby.phys_mem.num_reads::cpu1.data   1756494060                       # Number of read requests responded to by this memory
system.ruby.phys_mem.num_reads::cpu2.CUs0.ComputeUnit      1282144                       # Number of read requests responded to by this memory
system.ruby.phys_mem.num_reads::cpu2.CUs1.ComputeUnit      1271484                       # Number of read requests responded to by this memory
system.ruby.phys_mem.num_reads::cpu2.CUs2.ComputeUnit      1271945                       # Number of read requests responded to by this memory
system.ruby.phys_mem.num_reads::cpu2.CUs3.ComputeUnit      1274748                       # Number of read requests responded to by this memory
system.ruby.phys_mem.num_reads::total     12575294361                       # Number of read requests responded to by this memory
system.ruby.phys_mem.num_writes::cpu0.workload.drivers.device.hsapp            6                       # Number of write requests responded to by this memory
system.ruby.phys_mem.num_writes::cpu0.workload.drivers.device            4                       # Number of write requests responded to by this memory
system.ruby.phys_mem.num_writes::cpu0.data    669486880                       # Number of write requests responded to by this memory
system.ruby.phys_mem.num_writes::cpu1.data    108068944                       # Number of write requests responded to by this memory
system.ruby.phys_mem.num_writes::cpu2.CUs0.ComputeUnit       265180                       # Number of write requests responded to by this memory
system.ruby.phys_mem.num_writes::cpu2.CUs1.ComputeUnit       264411                       # Number of write requests responded to by this memory
system.ruby.phys_mem.num_writes::cpu2.CUs2.ComputeUnit       264512                       # Number of write requests responded to by this memory
system.ruby.phys_mem.num_writes::cpu2.CUs3.ComputeUnit       263284                       # Number of write requests responded to by this memory
system.ruby.phys_mem.num_writes::total      778613221                       # Number of write requests responded to by this memory
system.ruby.phys_mem.bw_read::cpu0.workload.drivers.device.hsapp          105                       # Total read bandwidth from this memory (bytes/s)
system.ruby.phys_mem.bw_read::cpu0.workload.drivers.device          283                       # Total read bandwidth from this memory (bytes/s)
system.ruby.phys_mem.bw_read::cpu0.inst    9715893989                       # Total read bandwidth from this memory (bytes/s)
system.ruby.phys_mem.bw_read::cpu0.data    1612083448                       # Total read bandwidth from this memory (bytes/s)
system.ruby.phys_mem.bw_read::cpu1.inst   11781345168                       # Total read bandwidth from this memory (bytes/s)
system.ruby.phys_mem.bw_read::cpu1.data    3445498550                       # Total read bandwidth from this memory (bytes/s)
system.ruby.phys_mem.bw_read::cpu2.CUs0.ComputeUnit      1957730                       # Total read bandwidth from this memory (bytes/s)
system.ruby.phys_mem.bw_read::cpu2.CUs1.ComputeUnit      1941697                       # Total read bandwidth from this memory (bytes/s)
system.ruby.phys_mem.bw_read::cpu2.CUs2.ComputeUnit      1943538                       # Total read bandwidth from this memory (bytes/s)
system.ruby.phys_mem.bw_read::cpu2.CUs3.ComputeUnit      1946253                       # Total read bandwidth from this memory (bytes/s)
system.ruby.phys_mem.bw_read::total       26562610761                       # Total read bandwidth from this memory (bytes/s)
system.ruby.phys_mem.bw_inst_read::cpu0.inst   9715893989                       # Instruction read bandwidth from this memory (bytes/s)
system.ruby.phys_mem.bw_inst_read::cpu1.inst  11781345168                       # Instruction read bandwidth from this memory (bytes/s)
system.ruby.phys_mem.bw_inst_read::cpu2.CUs0.ComputeUnit       737503                       # Instruction read bandwidth from this memory (bytes/s)
system.ruby.phys_mem.bw_inst_read::cpu2.CUs1.ComputeUnit       732394                       # Instruction read bandwidth from this memory (bytes/s)
system.ruby.phys_mem.bw_inst_read::cpu2.CUs2.ComputeUnit       733771                       # Instruction read bandwidth from this memory (bytes/s)
system.ruby.phys_mem.bw_inst_read::cpu2.CUs3.ComputeUnit       733021                       # Instruction read bandwidth from this memory (bytes/s)
system.ruby.phys_mem.bw_inst_read::total  21500175845                       # Instruction read bandwidth from this memory (bytes/s)
system.ruby.phys_mem.bw_write::cpu0.workload.drivers.device.hsapp           13                       # Write bandwidth from this memory (bytes/s)
system.ruby.phys_mem.bw_write::cpu0.workload.drivers.device            9                       # Write bandwidth from this memory (bytes/s)
system.ruby.phys_mem.bw_write::cpu0.data   1170065524                       # Write bandwidth from this memory (bytes/s)
system.ruby.phys_mem.bw_write::cpu1.data    235545162                       # Write bandwidth from this memory (bytes/s)
system.ruby.phys_mem.bw_write::cpu2.CUs0.ComputeUnit       288991                       # Write bandwidth from this memory (bytes/s)
system.ruby.phys_mem.bw_write::cpu2.CUs1.ComputeUnit       288153                       # Write bandwidth from this memory (bytes/s)
system.ruby.phys_mem.bw_write::cpu2.CUs2.ComputeUnit       288263                       # Write bandwidth from this memory (bytes/s)
system.ruby.phys_mem.bw_write::cpu2.CUs3.ComputeUnit       286925                       # Write bandwidth from this memory (bytes/s)
system.ruby.phys_mem.bw_write::total       1406763041                       # Write bandwidth from this memory (bytes/s)
system.ruby.phys_mem.bw_total::cpu0.workload.drivers.device.hsapp          118                       # Total bandwidth to/from this memory (bytes/s)
system.ruby.phys_mem.bw_total::cpu0.workload.drivers.device          292                       # Total bandwidth to/from this memory (bytes/s)
system.ruby.phys_mem.bw_total::cpu0.inst   9715893989                       # Total bandwidth to/from this memory (bytes/s)
system.ruby.phys_mem.bw_total::cpu0.data   2782148973                       # Total bandwidth to/from this memory (bytes/s)
system.ruby.phys_mem.bw_total::cpu1.inst  11781345168                       # Total bandwidth to/from this memory (bytes/s)
system.ruby.phys_mem.bw_total::cpu1.data   3681043712                       # Total bandwidth to/from this memory (bytes/s)
system.ruby.phys_mem.bw_total::cpu2.CUs0.ComputeUnit      2246722                       # Total bandwidth to/from this memory (bytes/s)
system.ruby.phys_mem.bw_total::cpu2.CUs1.ComputeUnit      2229851                       # Total bandwidth to/from this memory (bytes/s)
system.ruby.phys_mem.bw_total::cpu2.CUs2.ComputeUnit      2231801                       # Total bandwidth to/from this memory (bytes/s)
system.ruby.phys_mem.bw_total::cpu2.CUs3.ComputeUnit      2233178                       # Total bandwidth to/from this memory (bytes/s)
system.ruby.phys_mem.bw_total::total      27969373802                       # Total bandwidth to/from this memory (bytes/s)
system.pwrStateResidencyTicks::UNDEFINED 3670419909500                       # Cumulative time (in ticks) in various power states
system.cpu0.clk_domain.voltage_domain.voltage            1                       # Voltage in Volts
system.cpu0.clk_domain.clock                      500                       # Clock period in ticks
system.cpu0.dtb.walker.pwrStateResidencyTicks::UNDEFINED 3670419909500                       # Cumulative time (in ticks) in various power states
system.cpu0.dtb.rdAccesses                  950713129                       # TLB accesses on read requests
system.cpu0.dtb.wrAccesses                  669486886                       # TLB accesses on write requests
system.cpu0.dtb.rdMisses                       166326                       # TLB misses on read requests
system.cpu0.dtb.wrMisses                        48804                       # TLB misses on write requests
system.cpu0.apic_clk_domain.clock                8000                       # Clock period in ticks
system.cpu0.interrupts.pwrStateResidencyTicks::UNDEFINED 3670419909500                       # Cumulative time (in ticks) in various power states
system.cpu0.itb.walker.pwrStateResidencyTicks::UNDEFINED 3670419909500                       # Cumulative time (in ticks) in various power states
system.cpu0.itb.rdAccesses                          0                       # TLB accesses on read requests
system.cpu0.itb.wrAccesses                 4457676343                       # TLB accesses on write requests
system.cpu0.itb.rdMisses                            0                       # TLB misses on read requests
system.cpu0.itb.wrMisses                         3431                       # TLB misses on write requests
system.cpu0.workload.drivers.device.dispatcher.num_kernel_launched            4                       # number of kernel launched
system.cpu0.workload.drivers.device.dispatcher.cycles_wait_dispatch        16401                       # number of cycles with outstanding wavefronts that are waiting to be dispatched
system.cpu0.workload.drivers.device.hsapp.pwrStateResidencyTicks::UNDEFINED 3670419909500                       # Cumulative time (in ticks) in various power states
system.cpu0.workload.drivers.device.pwrStateResidencyTicks::UNDEFINED 3670419909500                       # Cumulative time (in ticks) in various power states
system.cpu0.workload.numSyscalls               183573                       # Number of system calls
system.cpu0.numPwrStateTransitions                  2                       # Number of power state transitions
system.cpu0.pwrStateClkGateDist::samples            1                       # Distribution of time spent in the clock gated state
system.cpu0.pwrStateClkGateDist::mean        19229000                       # Distribution of time spent in the clock gated state
system.cpu0.pwrStateClkGateDist::1000-5e+10            1    100.00%    100.00% # Distribution of time spent in the clock gated state
system.cpu0.pwrStateClkGateDist::min_value     19229000                       # Distribution of time spent in the clock gated state
system.cpu0.pwrStateClkGateDist::max_value     19229000                       # Distribution of time spent in the clock gated state
system.cpu0.pwrStateClkGateDist::total              1                       # Distribution of time spent in the clock gated state
system.cpu0.pwrStateResidencyTicks::ON   3670400680500                       # Cumulative time (in ticks) in various power states
system.cpu0.pwrStateResidencyTicks::CLK_GATED     19229000                       # Cumulative time (in ticks) in various power states
system.cpu0.numCycles                      7340839819                       # number of cpu cycles simulated
system.cpu0.numWorkItemsStarted                     0                       # number of work items this cpu started
system.cpu0.numWorkItemsCompleted                   0                       # number of work items this cpu completed
system.cpu0.committedInsts                 3361337490                       # Number of instructions committed
system.cpu0.committedOps                   6044140704                       # Number of ops (including micro ops) committed
system.cpu0.num_int_alu_accesses           5989624918                       # Number of integer alu accesses
system.cpu0.num_fp_alu_accesses              56455507                       # Number of float alu accesses
system.cpu0.num_vec_alu_accesses                    0                       # Number of vector alu accesses
system.cpu0.num_func_calls                  112190044                       # number of times a function call or return occured
system.cpu0.num_conditional_control_insts    469037804                       # number of instructions that are conditional controls
system.cpu0.num_int_insts                  5989624918                       # number of integer instructions
system.cpu0.num_fp_insts                     56455507                       # number of float instructions
system.cpu0.num_vec_insts                           0                       # number of vector instructions
system.cpu0.num_int_register_reads        12544816459                       # number of times the integer registers were read
system.cpu0.num_int_register_writes        4654751317                       # number of times the integer registers were written
system.cpu0.num_fp_register_reads            88373372                       # number of times the floating registers were read
system.cpu0.num_fp_register_writes           46715126                       # number of times the floating registers were written
system.cpu0.num_vec_register_reads                  0                       # number of times the vector registers were read
system.cpu0.num_vec_register_writes                 0                       # number of times the vector registers were written
system.cpu0.num_cc_register_reads          3079437232                       # number of times the CC registers were read
system.cpu0.num_cc_register_writes         1644316674                       # number of times the CC registers were written
system.cpu0.num_mem_refs                   1617045146                       # number of memory refs
system.cpu0.num_load_insts                  948900549                       # Number of load instructions
system.cpu0.num_store_insts                 668144597                       # Number of store instructions
system.cpu0.num_idle_cycles              38458.000000                       # Number of idle cycles
system.cpu0.num_busy_cycles                7340801361                       # Number of busy cycles
system.cpu0.not_idle_fraction                0.999995                       # Percentage of non-idle cycles
system.cpu0.idle_fraction                    0.000005                       # Percentage of idle cycles
system.cpu0.Branches                        686839391                       # Number of branches fetched
system.cpu0.op_class::No_OpClass             14787288      0.24%      0.24% # Class of executed instruction
system.cpu0.op_class::IntAlu               4346537909     71.91%     72.16% # Class of executed instruction
system.cpu0.op_class::IntMult                18840222      0.31%     72.47% # Class of executed instruction
system.cpu0.op_class::IntDiv                  5012783      0.08%     72.55% # Class of executed instruction
system.cpu0.op_class::FloatAdd                2270288      0.04%     72.59% # Class of executed instruction
system.cpu0.op_class::FloatCmp                      8      0.00%     72.59% # Class of executed instruction
system.cpu0.op_class::FloatCvt                   8512      0.00%     72.59% # Class of executed instruction
system.cpu0.op_class::FloatMult                     9      0.00%     72.59% # Class of executed instruction
system.cpu0.op_class::FloatMultAcc                  0      0.00%     72.59% # Class of executed instruction
system.cpu0.op_class::FloatDiv                      8      0.00%     72.59% # Class of executed instruction
system.cpu0.op_class::FloatMisc                     0      0.00%     72.59% # Class of executed instruction
system.cpu0.op_class::FloatSqrt                     0      0.00%     72.59% # Class of executed instruction
system.cpu0.op_class::SimdAdd                   53538      0.00%     72.59% # Class of executed instruction
system.cpu0.op_class::SimdAddAcc                    0      0.00%     72.59% # Class of executed instruction
system.cpu0.op_class::SimdAlu                 4328698      0.07%     72.66% # Class of executed instruction
system.cpu0.op_class::SimdCmp                    1608      0.00%     72.66% # Class of executed instruction
system.cpu0.op_class::SimdCvt                 9429336      0.16%     72.82% # Class of executed instruction
system.cpu0.op_class::SimdMisc               24169915      0.40%     73.22% # Class of executed instruction
system.cpu0.op_class::SimdMult                      0      0.00%     73.22% # Class of executed instruction
system.cpu0.op_class::SimdMultAcc                   0      0.00%     73.22% # Class of executed instruction
system.cpu0.op_class::SimdShift                 33510      0.00%     73.22% # Class of executed instruction
system.cpu0.op_class::SimdShiftAcc                  0      0.00%     73.22% # Class of executed instruction
system.cpu0.op_class::SimdSqrt                      0      0.00%     73.22% # Class of executed instruction
system.cpu0.op_class::SimdFloatAdd             180207      0.00%     73.22% # Class of executed instruction
system.cpu0.op_class::SimdFloatAlu                  0      0.00%     73.22% # Class of executed instruction
system.cpu0.op_class::SimdFloatCmp                  0      0.00%     73.22% # Class of executed instruction
system.cpu0.op_class::SimdFloatCvt            1081286      0.02%     73.24% # Class of executed instruction
system.cpu0.op_class::SimdFloatDiv                  9      0.00%     73.24% # Class of executed instruction
system.cpu0.op_class::SimdFloatMisc                 0      0.00%     73.24% # Class of executed instruction
system.cpu0.op_class::SimdFloatMult            360424      0.01%     73.25% # Class of executed instruction
system.cpu0.op_class::SimdFloatMultAcc              0      0.00%     73.25% # Class of executed instruction
system.cpu0.op_class::SimdFloatSqrt                 0      0.00%     73.25% # Class of executed instruction
system.cpu0.op_class::MemRead               939801061     15.55%     88.80% # Class of executed instruction
system.cpu0.op_class::MemWrite              666921560     11.03%     99.83% # Class of executed instruction
system.cpu0.op_class::FloatMemRead            9099488      0.15%     99.98% # Class of executed instruction
system.cpu0.op_class::FloatMemWrite           1223037      0.02%    100.00% # Class of executed instruction
system.cpu0.op_class::IprAccess                     0      0.00%    100.00% # Class of executed instruction
system.cpu0.op_class::InstPrefetch                  0      0.00%    100.00% # Class of executed instruction
system.cpu0.op_class::total                6044140704                       # Class of executed instruction
system.cpu1.clk_domain.voltage_domain.voltage            1                       # Voltage in Volts
system.cpu1.clk_domain.clock                      500                       # Clock period in ticks
system.cpu1.dtb.walker.pwrStateResidencyTicks::UNDEFINED 3670419909500                       # Cumulative time (in ticks) in various power states
system.cpu1.dtb.rdAccesses                 1756494060                       # TLB accesses on read requests
system.cpu1.dtb.wrAccesses                  108068944                       # TLB accesses on write requests
system.cpu1.dtb.rdMisses                          233                       # TLB misses on read requests
system.cpu1.dtb.wrMisses                            6                       # TLB misses on write requests
system.cpu1.apic_clk_domain.clock                8000                       # Clock period in ticks
system.cpu1.interrupts.pwrStateResidencyTicks::UNDEFINED 3670419909500                       # Cumulative time (in ticks) in various power states
system.cpu1.itb.walker.pwrStateResidencyTicks::UNDEFINED 3670419909500                       # Cumulative time (in ticks) in various power states
system.cpu1.itb.rdAccesses                          0                       # TLB accesses on read requests
system.cpu1.itb.wrAccesses                 5405310483                       # TLB accesses on write requests
system.cpu1.itb.rdMisses                            0                       # TLB misses on read requests
system.cpu1.itb.wrMisses                          128                       # TLB misses on write requests
system.cpu1.pwrStateResidencyTicks::ON   3670419909500                       # Cumulative time (in ticks) in various power states
system.cpu1.numCycles                      7340322477                       # number of cpu cycles simulated
system.cpu1.numWorkItemsStarted                     0                       # number of work items this cpu started
system.cpu1.numWorkItemsCompleted                   0                       # number of work items this cpu completed
system.cpu1.committedInsts                 4026884929                       # Number of instructions committed
system.cpu1.committedOps                   7540537245                       # Number of ops (including micro ops) committed
system.cpu1.num_int_alu_accesses           7377944655                       # Number of integer alu accesses
system.cpu1.num_fp_alu_accesses             270987082                       # Number of float alu accesses
system.cpu1.num_vec_alu_accesses                    0                       # Number of vector alu accesses
system.cpu1.num_func_calls                  216133539                       # number of times a function call or return occured
system.cpu1.num_conditional_control_insts    864861906                       # number of instructions that are conditional controls
system.cpu1.num_int_insts                  7377944655                       # number of integer instructions
system.cpu1.num_fp_insts                    270987082                       # number of float instructions
system.cpu1.num_vec_insts                           0                       # number of vector instructions
system.cpu1.num_int_register_reads        14242000435                       # number of times the integer registers were read
system.cpu1.num_int_register_writes        5972419248                       # number of times the integer registers were written
system.cpu1.num_fp_register_reads           406480658                       # number of times the floating registers were read
system.cpu1.num_fp_register_writes          243888118                       # number of times the floating registers were written
system.cpu1.num_vec_register_reads                  0                       # number of times the vector registers were read
system.cpu1.num_vec_register_writes                 0                       # number of times the vector registers were written
system.cpu1.num_cc_register_reads          6215974339                       # number of times the CC registers were read
system.cpu1.num_cc_register_writes         2486522480                       # number of times the CC registers were written
system.cpu1.num_mem_refs                   1864563004                       # number of memory refs
system.cpu1.num_load_insts                 1756494060                       # Number of load instructions
system.cpu1.num_store_insts                 108068944                       # Number of store instructions
system.cpu1.num_idle_cycles              69559331.497522                       # Number of idle cycles
system.cpu1.num_busy_cycles              7270763145.502479                       # Number of busy cycles
system.cpu1.not_idle_fraction                0.990524                       # Percentage of non-idle cycles
system.cpu1.idle_fraction                    0.009476                       # Percentage of idle cycles
system.cpu1.Branches                       1189062207                       # Number of branches fetched
system.cpu1.op_class::No_OpClass                  399      0.00%      0.00% # Class of executed instruction
system.cpu1.op_class::IntAlu               5486282926     72.76%     72.76% # Class of executed instruction
system.cpu1.op_class::IntMult                       0      0.00%     72.76% # Class of executed instruction
system.cpu1.op_class::IntDiv                       86      0.00%     72.76% # Class of executed instruction
system.cpu1.op_class::FloatAdd                     41      0.00%     72.76% # Class of executed instruction
system.cpu1.op_class::FloatCmp                      0      0.00%     72.76% # Class of executed instruction
system.cpu1.op_class::FloatCvt                     80      0.00%     72.76% # Class of executed instruction
system.cpu1.op_class::FloatMult                     0      0.00%     72.76% # Class of executed instruction
system.cpu1.op_class::FloatMultAcc                  0      0.00%     72.76% # Class of executed instruction
system.cpu1.op_class::FloatDiv                      0      0.00%     72.76% # Class of executed instruction
system.cpu1.op_class::FloatMisc                     0      0.00%     72.76% # Class of executed instruction
system.cpu1.op_class::FloatSqrt                     0      0.00%     72.76% # Class of executed instruction
system.cpu1.op_class::SimdAdd                     248      0.00%     72.76% # Class of executed instruction
system.cpu1.op_class::SimdAddAcc                    0      0.00%     72.76% # Class of executed instruction
system.cpu1.op_class::SimdAlu                54197243      0.72%     73.48% # Class of executed instruction
system.cpu1.op_class::SimdCmp                       0      0.00%     73.48% # Class of executed instruction
system.cpu1.op_class::SimdCvt                     496      0.00%     73.48% # Class of executed instruction
system.cpu1.op_class::SimdMisc               27098728      0.36%     73.84% # Class of executed instruction
system.cpu1.op_class::SimdMult                      0      0.00%     73.84% # Class of executed instruction
system.cpu1.op_class::SimdMultAcc                   0      0.00%     73.84% # Class of executed instruction
system.cpu1.op_class::SimdShift                    94      0.00%     73.84% # Class of executed instruction
system.cpu1.op_class::SimdShiftAcc                  0      0.00%     73.84% # Class of executed instruction
system.cpu1.op_class::SimdSqrt                      0      0.00%     73.84% # Class of executed instruction
system.cpu1.op_class::SimdFloatAdd           27098472      0.36%     74.19% # Class of executed instruction
system.cpu1.op_class::SimdFloatAlu                  0      0.00%     74.19% # Class of executed instruction
system.cpu1.op_class::SimdFloatCmp                  0      0.00%     74.19% # Class of executed instruction
system.cpu1.op_class::SimdFloatCvt           54196948      0.72%     74.91% # Class of executed instruction
system.cpu1.op_class::SimdFloatDiv                  4      0.00%     74.91% # Class of executed instruction
system.cpu1.op_class::SimdFloatMisc                 0      0.00%     74.91% # Class of executed instruction
system.cpu1.op_class::SimdFloatMult          27098476      0.36%     75.27% # Class of executed instruction
system.cpu1.op_class::SimdFloatMultAcc              0      0.00%     75.27% # Class of executed instruction
system.cpu1.op_class::SimdFloatSqrt                 0      0.00%     75.27% # Class of executed instruction
system.cpu1.op_class::MemRead              1675197988     22.22%     97.49% # Class of executed instruction
system.cpu1.op_class::MemWrite              108068776      1.43%     98.92% # Class of executed instruction
system.cpu1.op_class::FloatMemRead           81296072      1.08%    100.00% # Class of executed instruction
system.cpu1.op_class::FloatMemWrite               168      0.00%    100.00% # Class of executed instruction
system.cpu1.op_class::IprAccess                     0      0.00%    100.00% # Class of executed instruction
system.cpu1.op_class::InstPrefetch                  0      0.00%    100.00% # Class of executed instruction
system.cpu1.op_class::total                7540537245                       # Class of executed instruction
system.cpu2.clk_domain.voltage_domain.voltage            1                       # Voltage in Volts
system.cpu2.clk_domain.clock                     1000                       # Clock period in ticks
system.cpu2.CUs0.localDataStore.pwrStateResidencyTicks::UNDEFINED 3670419909500                       # Cumulative time (in ticks) in various power states
system.cpu2.CUs0.scalar_register_file0.register_reads        81114                       # Total number of DWORDs read from register file
system.cpu2.CUs0.scalar_register_file0.register_writes        92991                       # Total number of DWORDS written to register file
system.cpu2.CUs0.scalar_register_file0.sram_reads            0                       # Total number of register file bank SRAM activations for reads
system.cpu2.CUs0.scalar_register_file0.sram_writes            0                       # Total number of register file bank SRAM activations for writes
system.cpu2.CUs0.scalar_register_file1.register_reads        81060                       # Total number of DWORDs read from register file
system.cpu2.CUs0.scalar_register_file1.register_writes        92859                       # Total number of DWORDS written to register file
system.cpu2.CUs0.scalar_register_file1.sram_reads            0                       # Total number of register file bank SRAM activations for reads
system.cpu2.CUs0.scalar_register_file1.sram_writes            0                       # Total number of register file bank SRAM activations for writes
system.cpu2.CUs0.scalar_register_file2.register_reads        80961                       # Total number of DWORDs read from register file
system.cpu2.CUs0.scalar_register_file2.register_writes        92745                       # Total number of DWORDS written to register file
system.cpu2.CUs0.scalar_register_file2.sram_reads            0                       # Total number of register file bank SRAM activations for reads
system.cpu2.CUs0.scalar_register_file2.sram_writes            0                       # Total number of register file bank SRAM activations for writes
system.cpu2.CUs0.scalar_register_file3.register_reads        81107                       # Total number of DWORDs read from register file
system.cpu2.CUs0.scalar_register_file3.register_writes        92943                       # Total number of DWORDS written to register file
system.cpu2.CUs0.scalar_register_file3.sram_reads            0                       # Total number of register file bank SRAM activations for reads
system.cpu2.CUs0.scalar_register_file3.sram_writes            0                       # Total number of register file bank SRAM activations for writes
system.cpu2.CUs0.vector_register_file0.register_reads      6154542                       # Total number of DWORDs read from register file
system.cpu2.CUs0.vector_register_file0.register_writes      3977798                       # Total number of DWORDS written to register file
system.cpu2.CUs0.vector_register_file0.sram_reads      1608466                       # Total number of register file bank SRAM activations for reads
system.cpu2.CUs0.vector_register_file0.sram_writes      1043916                       # Total number of register file bank SRAM activations for writes
system.cpu2.CUs0.vector_register_file1.register_reads      6176616                       # Total number of DWORDs read from register file
system.cpu2.CUs0.vector_register_file1.register_writes      3993215                       # Total number of DWORDS written to register file
system.cpu2.CUs0.vector_register_file1.sram_reads      1613328                       # Total number of register file bank SRAM activations for reads
system.cpu2.CUs0.vector_register_file1.sram_writes      1047302                       # Total number of register file bank SRAM activations for writes
system.cpu2.CUs0.vector_register_file2.register_reads      6169976                       # Total number of DWORDs read from register file
system.cpu2.CUs0.vector_register_file2.register_writes      3988693                       # Total number of DWORDS written to register file
system.cpu2.CUs0.vector_register_file2.sram_reads      1612688                       # Total number of register file bank SRAM activations for reads
system.cpu2.CUs0.vector_register_file2.sram_writes      1046894                       # Total number of register file bank SRAM activations for writes
system.cpu2.CUs0.vector_register_file3.register_reads      6166568                       # Total number of DWORDs read from register file
system.cpu2.CUs0.vector_register_file3.register_writes      3986511                       # Total number of DWORDS written to register file
system.cpu2.CUs0.vector_register_file3.sram_reads      1612304                       # Total number of register file bank SRAM activations for reads
system.cpu2.CUs0.vector_register_file3.sram_writes      1046680                       # Total number of register file bank SRAM activations for writes
system.cpu2.CUs0.wavefronts00.num_instr_executed       105058                       # number of instructions executed by this WF slot
system.cpu2.CUs0.wavefronts00.sch_cycles       251427                       # number of cycles spent in schedule stage
system.cpu2.CUs0.wavefronts00.sch_stalls       146369                       # number of cycles WF is stalled in SCH stage
system.cpu2.CUs0.wavefronts00.sch_rf_access_stalls            0                       # number of cycles wave selected in SCH but RF denied adding instruction
system.cpu2.CUs0.wavefronts00.sch_resource_stalls       140114                       # number of cycles stalled in sch by resource not available
system.cpu2.CUs0.wavefronts00.sch_opd_nrdy_stalls            0                       # number of cycles stalled in sch waiting for RF reads to complete
system.cpu2.CUs0.wavefronts00.sch_lds_arb_stalls            0                       # number of cycles wave stalled due to LDS-VRF arbitration
system.cpu2.CUs0.wavefronts00.timesBlockedDueWAXDependencies            0                       # number of times the wf's instructions are blocked due to WAW or WAR dependencies
system.cpu2.CUs0.wavefronts00.timesBlockedDueRAWDependencies       201100                       # number of times the wf's instructions are blocked due to RAW dependencies
system.cpu2.CUs0.wavefronts00.vec_raw_distance::samples       106513                       # Count of RAW distance in dynamic instructions for this WF
system.cpu2.CUs0.wavefronts00.vec_raw_distance::mean   932.243407                       # Count of RAW distance in dynamic instructions for this WF
system.cpu2.CUs0.wavefronts00.vec_raw_distance::stdev  8114.765124                       # Count of RAW distance in dynamic instructions for this WF
system.cpu2.CUs0.wavefronts00.vec_raw_distance::underflows            0      0.00%      0.00% # Count of RAW distance in dynamic instructions for this WF
system.cpu2.CUs0.wavefronts00.vec_raw_distance::0            0      0.00%      0.00% # Count of RAW distance in dynamic instructions for this WF
system.cpu2.CUs0.wavefronts00.vec_raw_distance::1        24910     23.39%     23.39% # Count of RAW distance in dynamic instructions for this WF
system.cpu2.CUs0.wavefronts00.vec_raw_distance::2        20607     19.35%     42.73% # Count of RAW distance in dynamic instructions for this WF
system.cpu2.CUs0.wavefronts00.vec_raw_distance::3         4916      4.62%     47.35% # Count of RAW distance in dynamic instructions for this WF
system.cpu2.CUs0.wavefronts00.vec_raw_distance::4         5000      4.69%     52.04% # Count of RAW distance in dynamic instructions for this WF
system.cpu2.CUs0.wavefronts00.vec_raw_distance::5         8526      8.00%     60.05% # Count of RAW distance in dynamic instructions for this WF
system.cpu2.CUs0.wavefronts00.vec_raw_distance::6         8446      7.93%     67.98% # Count of RAW distance in dynamic instructions for this WF
system.cpu2.CUs0.wavefronts00.vec_raw_distance::7         5421      5.09%     73.07% # Count of RAW distance in dynamic instructions for this WF
system.cpu2.CUs0.wavefronts00.vec_raw_distance::8         2847      2.67%     75.74% # Count of RAW distance in dynamic instructions for this WF
system.cpu2.CUs0.wavefronts00.vec_raw_distance::9         2070      1.94%     77.68% # Count of RAW distance in dynamic instructions for this WF
system.cpu2.CUs0.wavefronts00.vec_raw_distance::10         1553      1.46%     79.14% # Count of RAW distance in dynamic instructions for this WF
system.cpu2.CUs0.wavefronts00.vec_raw_distance::11         1294      1.21%     80.36% # Count of RAW distance in dynamic instructions for this WF
system.cpu2.CUs0.wavefronts00.vec_raw_distance::12         1118      1.05%     81.41% # Count of RAW distance in dynamic instructions for this WF
system.cpu2.CUs0.wavefronts00.vec_raw_distance::13         1376      1.29%     82.70% # Count of RAW distance in dynamic instructions for this WF
system.cpu2.CUs0.wavefronts00.vec_raw_distance::14          777      0.73%     83.43% # Count of RAW distance in dynamic instructions for this WF
system.cpu2.CUs0.wavefronts00.vec_raw_distance::15            0      0.00%     83.43% # Count of RAW distance in dynamic instructions for this WF
system.cpu2.CUs0.wavefronts00.vec_raw_distance::16         1635      1.54%     84.96% # Count of RAW distance in dynamic instructions for this WF
system.cpu2.CUs0.wavefronts00.vec_raw_distance::17          259      0.24%     85.21% # Count of RAW distance in dynamic instructions for this WF
system.cpu2.CUs0.wavefronts00.vec_raw_distance::18            0      0.00%     85.21% # Count of RAW distance in dynamic instructions for this WF
system.cpu2.CUs0.wavefronts00.vec_raw_distance::19          259      0.24%     85.45% # Count of RAW distance in dynamic instructions for this WF
system.cpu2.CUs0.wavefronts00.vec_raw_distance::20         1035      0.97%     86.42% # Count of RAW distance in dynamic instructions for this WF
system.cpu2.CUs0.wavefronts00.vec_raw_distance::overflows        14464     13.58%    100.00% # Count of RAW distance in dynamic instructions for this WF
system.cpu2.CUs0.wavefronts00.vec_raw_distance::min_value            1                       # Count of RAW distance in dynamic instructions for this WF
system.cpu2.CUs0.wavefronts00.vec_raw_distance::max_value       105026                       # Count of RAW distance in dynamic instructions for this WF
system.cpu2.CUs0.wavefronts00.vec_raw_distance::total       106513                       # Count of RAW distance in dynamic instructions for this WF
system.cpu2.CUs0.wavefronts00.vec_reads_per_write::samples        70747                       # Count of Vector reads per write for this WF
system.cpu2.CUs0.wavefronts00.vec_reads_per_write::mean     1.505548                       # Count of Vector reads per write for this WF
system.cpu2.CUs0.wavefronts00.vec_reads_per_write::stdev     1.213123                       # Count of Vector reads per write for this WF
system.cpu2.CUs0.wavefronts00.vec_reads_per_write::underflows            0      0.00%      0.00% # Count of Vector reads per write for this WF
system.cpu2.CUs0.wavefronts00.vec_reads_per_write::0         1295      1.83%      1.83% # Count of Vector reads per write for this WF
system.cpu2.CUs0.wavefronts00.vec_reads_per_write::1        47400     67.00%     68.83% # Count of Vector reads per write for this WF
system.cpu2.CUs0.wavefronts00.vec_reads_per_write::2        17135     24.22%     93.05% # Count of Vector reads per write for this WF
system.cpu2.CUs0.wavefronts00.vec_reads_per_write::3         1294      1.83%     94.88% # Count of Vector reads per write for this WF
system.cpu2.CUs0.wavefronts00.vec_reads_per_write::4         1294      1.83%     96.71% # Count of Vector reads per write for this WF
system.cpu2.CUs0.wavefronts00.vec_reads_per_write::overflows         2329      3.29%    100.00% # Count of Vector reads per write for this WF
system.cpu2.CUs0.wavefronts00.vec_reads_per_write::min_value            0                       # Count of Vector reads per write for this WF
system.cpu2.CUs0.wavefronts00.vec_reads_per_write::max_value            9                       # Count of Vector reads per write for this WF
system.cpu2.CUs0.wavefronts00.vec_reads_per_write::total        70747                       # Count of Vector reads per write for this WF
system.cpu2.CUs0.wavefronts01.num_instr_executed            0                       # number of instructions executed by this WF slot
system.cpu2.CUs0.wavefronts01.sch_cycles            0                       # number of cycles spent in schedule stage
system.cpu2.CUs0.wavefronts01.sch_stalls            0                       # number of cycles WF is stalled in SCH stage
system.cpu2.CUs0.wavefronts01.sch_rf_access_stalls            0                       # number of cycles wave selected in SCH but RF denied adding instruction
system.cpu2.CUs0.wavefronts01.sch_resource_stalls            0                       # number of cycles stalled in sch by resource not available
system.cpu2.CUs0.wavefronts01.sch_opd_nrdy_stalls            0                       # number of cycles stalled in sch waiting for RF reads to complete
system.cpu2.CUs0.wavefronts01.sch_lds_arb_stalls            0                       # number of cycles wave stalled due to LDS-VRF arbitration
system.cpu2.CUs0.wavefronts01.timesBlockedDueWAXDependencies            0                       # number of times the wf's instructions are blocked due to WAW or WAR dependencies
system.cpu2.CUs0.wavefronts01.timesBlockedDueRAWDependencies            0                       # number of times the wf's instructions are blocked due to RAW dependencies
system.cpu2.CUs0.wavefronts01.vec_raw_distance::samples            0                       # Count of RAW distance in dynamic instructions for this WF
system.cpu2.CUs0.wavefronts01.vec_raw_distance::mean          nan                       # Count of RAW distance in dynamic instructions for this WF
system.cpu2.CUs0.wavefronts01.vec_raw_distance::stdev          nan                       # Count of RAW distance in dynamic instructions for this WF
system.cpu2.CUs0.wavefronts01.vec_raw_distance::underflows            0                       # Count of RAW distance in dynamic instructions for this WF
system.cpu2.CUs0.wavefronts01.vec_raw_distance::0            0                       # Count of RAW distance in dynamic instructions for this WF
system.cpu2.CUs0.wavefronts01.vec_raw_distance::1            0                       # Count of RAW distance in dynamic instructions for this WF
[...]
system.ruby.CorePair_Controller.PrbShrData       180712      0.00%      0.00%
system.ruby.CorePair_Controller.I.C0_Load_L1miss      2704132      0.00%      0.00%
system.ruby.CorePair_Controller.I.C1_Load_L1miss         3818      0.00%      0.00%
system.ruby.CorePair_Controller.I.Ifetch0_L1miss        18177      0.00%      0.00%
system.ruby.CorePair_Controller.I.Ifetch1_L1miss         1411      0.00%      0.00%
system.ruby.CorePair_Controller.I.C0_Store_L1miss      2800506      0.00%      0.00%
system.ruby.CorePair_Controller.I.C1_Store_L1miss           86      0.00%      0.00%
system.ruby.CorePair_Controller.I.PrbInvData        73162      0.00%      0.00%
system.ruby.CorePair_Controller.I.PrbShrData       162066      0.00%      0.00%
system.ruby.CorePair_Controller.S.C0_Load_L1miss            3      0.00%      0.00%
system.ruby.CorePair_Controller.S.C0_Load_L1hit            8      0.00%      0.00%
system.ruby.CorePair_Controller.S.Ifetch0_L1hit    162089429      0.00%      0.00%
system.ruby.CorePair_Controller.S.Ifetch1_L1hit   1110341744      0.00%      0.00%
system.ruby.CorePair_Controller.S.Ifetch0_L1miss       601425      0.00%      0.00%
system.ruby.CorePair_Controller.S.Ifetch1_L1miss           32      0.00%      0.00%
system.ruby.CorePair_Controller.S.L1I_Repl       610549      0.00%      0.00%
system.ruby.CorePair_Controller.S.L1D0_Repl         1512      0.00%      0.00%
system.ruby.CorePair_Controller.S.L2_Repl        24744      0.00%      0.00%
system.ruby.CorePair_Controller.S.PrbInvData            1      0.00%      0.00%
system.ruby.CorePair_Controller.S.PrbShrData         6315      0.00%      0.00%
system.ruby.CorePair_Controller.E0.C0_Load_L1miss      2171506      0.00%      0.00%
system.ruby.CorePair_Controller.E0.C0_Load_L1hit    132223193      0.00%      0.00%
system.ruby.CorePair_Controller.E0.C1_Load_L1miss          268      0.00%      0.00%
system.ruby.CorePair_Controller.E0.Ifetch0_L1miss           15      0.00%      0.00%
system.ruby.CorePair_Controller.E0.C0_Store_L1miss          600      0.00%      0.00%
system.ruby.CorePair_Controller.E0.C0_Store_L1hit       148762      0.00%      0.00%
system.ruby.CorePair_Controller.E0.C1_Store_L1miss            1      0.00%      0.00%
system.ruby.CorePair_Controller.E0.L1D0_Repl      4723675      0.00%      0.00%
system.ruby.CorePair_Controller.E0.L2_Repl      2538066      0.00%      0.00%
system.ruby.CorePair_Controller.E0.PrbInvData         1193      0.00%      0.00%
system.ruby.CorePair_Controller.E0.PrbShrData        10865      0.00%      0.00%
system.ruby.CorePair_Controller.E1.C0_Load_L1miss           53      0.00%      0.00%
system.ruby.CorePair_Controller.E1.C1_Load_L1miss            2      0.00%      0.00%
system.ruby.CorePair_Controller.E1.C1_Load_L1hit   1212578227      0.00%      0.00%
system.ruby.CorePair_Controller.E1.C0_Store_L1miss            5      0.00%      0.00%
system.ruby.CorePair_Controller.E1.C1_Store_L1hit           38      0.00%      0.00%
system.ruby.CorePair_Controller.E1.L1D1_Repl            8      0.00%      0.00%
system.ruby.CorePair_Controller.E1.L2_Repl         3691      0.00%      0.00%
system.ruby.CorePair_Controller.Es.C0_Load_L1miss          364      0.00%      0.00%
system.ruby.CorePair_Controller.Es.C0_Load_L1hit       102755      0.00%      0.00%
system.ruby.CorePair_Controller.Es.C1_Load_L1miss            3      0.00%      0.00%
system.ruby.CorePair_Controller.Es.C1_Load_L1hit      8656906      0.00%      0.00%
system.ruby.CorePair_Controller.Es.C0_Store_L1hit           15      0.00%      0.00%
system.ruby.CorePair_Controller.Es.C1_Store_L1hit            8      0.00%      0.00%
system.ruby.CorePair_Controller.Es.L1D0_Repl          516      0.00%      0.00%
system.ruby.CorePair_Controller.Es.L1D1_Repl            8      0.00%      0.00%
system.ruby.CorePair_Controller.Es.L2_Repl          163      0.00%      0.00%
system.ruby.CorePair_Controller.O.C0_Load_L1miss            1      0.00%      0.00%
system.ruby.CorePair_Controller.O.C0_Load_L1hit           11      0.00%      0.00%
system.ruby.CorePair_Controller.O.C0_Store_L1hit            2      0.00%      0.00%
system.ruby.CorePair_Controller.O.L1D0_Repl            7      0.00%      0.00%
system.ruby.CorePair_Controller.O.L2_Repl          881      0.00%      0.00%
system.ruby.CorePair_Controller.O.PrbShrData            8      0.00%      0.00%
system.ruby.CorePair_Controller.Ms.C0_Load_L1miss           34      0.00%      0.00%
system.ruby.CorePair_Controller.Ms.C0_Load_L1hit        12080      0.00%      0.00%
system.ruby.CorePair_Controller.Ms.C1_Load_L1hit      9313792      0.00%      0.00%
system.ruby.CorePair_Controller.Ms.C0_Store_L1hit           32      0.00%      0.00%
system.ruby.CorePair_Controller.Ms.C1_Store_L1hit           28      0.00%      0.00%
system.ruby.CorePair_Controller.Ms.L1D0_Repl           62      0.00%      0.00%
system.ruby.CorePair_Controller.Ms.L2_Repl           32      0.00%      0.00%
system.ruby.CorePair_Controller.M0.C0_Load_L1miss       110836      0.00%      0.00%
system.ruby.CorePair_Controller.M0.C0_Load_L1hit    798657355      0.00%      0.00%
system.ruby.CorePair_Controller.M0.C1_Load_L1miss           73      0.00%      0.00%
system.ruby.CorePair_Controller.M0.C0_Store_L1miss        28486      0.00%      0.00%
system.ruby.CorePair_Controller.M0.C0_Store_L1hit    681239233      0.00%      0.00%
system.ruby.CorePair_Controller.M0.C1_Store_L1miss           13      0.00%      0.00%
system.ruby.CorePair_Controller.M0.L1D0_Repl      3088525      0.00%      0.00%
system.ruby.CorePair_Controller.M0.L2_Repl      2926472      0.00%      0.00%
system.ruby.CorePair_Controller.M0.PrbInvData            4      0.00%      0.00%
system.ruby.CorePair_Controller.M0.PrbShrData         1456      0.00%      0.00%
system.ruby.CorePair_Controller.M1.C0_Load_L1miss           30      0.00%      0.00%
system.ruby.CorePair_Controller.M1.C1_Load_L1hit    525940866      0.00%      0.00%
system.ruby.CorePair_Controller.M1.C0_Store_L1miss            6      0.00%      0.00%
system.ruby.CorePair_Controller.M1.C1_Store_L1hit    108068873      0.00%      0.00%
system.ruby.CorePair_Controller.M1.L1D1_Repl            2      0.00%      0.00%
system.ruby.CorePair_Controller.M1.L2_Repl          115      0.00%      0.00%
system.ruby.CorePair_Controller.I_M0.NB_AckM      2800506      0.00%      0.00%
system.ruby.CorePair_Controller.I_M1.NB_AckM           86      0.00%      0.00%
system.ruby.CorePair_Controller.I_E0S.NB_AckE      2704132      0.00%      0.00%
system.ruby.CorePair_Controller.I_E0S.PrbShrData            2      0.00%      0.00%
system.ruby.CorePair_Controller.I_E1S.NB_AckE         3818      0.00%      0.00%
system.ruby.CorePair_Controller.ES_I.C1_Load_L1miss        18447      0.00%      0.00%
system.ruby.CorePair_Controller.ES_I.Ifetch1_L1miss        11302      0.00%      0.00%
system.ruby.CorePair_Controller.ES_I.NB_AckWB      2566664      0.00%      0.00%
system.ruby.CorePair_Controller.MO_I.C1_Load_L1miss          207      0.00%      0.00%
system.ruby.CorePair_Controller.MO_I.NB_AckWB      2927500      0.00%      0.00%
system.ruby.CorePair_Controller.S_F0.L2_to_L1D0            3      0.00%      0.00%
system.ruby.CorePair_Controller.O_F0.L2_to_L1D0            1      0.00%      0.00%
system.ruby.CorePair_Controller.Si_F0.L2_to_L1I       601425      0.00%      0.00%
system.ruby.CorePair_Controller.Si_F1.L2_to_L1I           32      0.00%      0.00%
system.ruby.CorePair_Controller.O_M0.NB_AckM            2      0.00%      0.00%
system.ruby.CorePair_Controller.S0.NB_AckS        18192      0.00%      0.00%
system.ruby.CorePair_Controller.S1.NB_AckS         1411      0.00%      0.00%
system.ruby.CorePair_Controller.Es_F0.L2_to_L1D0          364      0.00%      0.00%
system.ruby.CorePair_Controller.Es_F1.L2_to_L1D1            3      0.00%      0.00%
system.ruby.CorePair_Controller.E0_F.L2_to_L1D0      2171506      0.00%      0.00%
system.ruby.CorePair_Controller.E1_F.L2_to_L1D1            2      0.00%      0.00%
system.ruby.CorePair_Controller.E0_Es.L2_to_L1D1          268      0.00%      0.00%
system.ruby.CorePair_Controller.E1_Es.C1_Load_L1hit            2      0.00%      0.00%
system.ruby.CorePair_Controller.E1_Es.L2_to_L1D0           53      0.00%      0.00%
system.ruby.CorePair_Controller.Ms_F0.L2_to_L1D0           34      0.00%      0.00%
system.ruby.CorePair_Controller.M0_F.L2_to_L1D0       110836      0.00%      0.00%
system.ruby.CorePair_Controller.M0_Ms.C0_Load_L1hit            1      0.00%      0.00%
system.ruby.CorePair_Controller.M0_Ms.L2_to_L1D1           73      0.00%      0.00%
system.ruby.CorePair_Controller.M1_Ms.L2_to_L1D0           30      0.00%      0.00%
system.ruby.Directory_Controller.RdBlkS         19603      0.00%      0.00%
system.ruby.Directory_Controller.RdBlkM       2800594      0.00%      0.00%
system.ruby.Directory_Controller.RdBlk        2888649      0.00%      0.00%
system.ruby.Directory_Controller.WriteThrough        78964      0.00%      0.00%
system.ruby.Directory_Controller.VicDirty      2927500      0.00%      0.00%
system.ruby.Directory_Controller.VicClean      2566664      0.00%      0.00%
system.ruby.Directory_Controller.CPUData      5494164      0.00%      0.00%
system.ruby.Directory_Controller.CPUPrbResp      5783255      0.00%      0.00%
system.ruby.Directory_Controller.ProbeAcksComplete      5783219      0.00%      0.00%
system.ruby.Directory_Controller.L3Hit        4981940      0.00%      0.00%
system.ruby.Directory_Controller.MemData       801269      0.00%      0.00%
system.ruby.Directory_Controller.WBAck         329026      0.00%      0.00%
system.ruby.Directory_Controller.CoreUnblock      5708832      0.00%      0.00%
system.ruby.Directory_Controller.UnblockWriteThrough        74350      0.00%      0.00%
system.ruby.Directory_Controller.DmaRead           26      0.00%      0.00%
system.ruby.Directory_Controller.DmaWrite           10      0.00%      0.00%
system.ruby.Directory_Controller.U.RdBlkS        19603      0.00%      0.00%
system.ruby.Directory_Controller.U.RdBlkM      2800594      0.00%      0.00%
system.ruby.Directory_Controller.U.RdBlk      2888636      0.00%      0.00%
system.ruby.Directory_Controller.U.WriteThrough        74350      0.00%      0.00%
system.ruby.Directory_Controller.U.VicDirty      2927500      0.00%      0.00%
system.ruby.Directory_Controller.U.VicClean      2566664      0.00%      0.00%
system.ruby.Directory_Controller.U.WBAck       329026      0.00%      0.00%
system.ruby.Directory_Controller.U.DmaRead           26      0.00%      0.00%
system.ruby.Directory_Controller.U.DmaWrite           10      0.00%      0.00%
system.ruby.Directory_Controller.BL.RdBlk            1      0.00%      0.00%
system.ruby.Directory_Controller.BL.CPUData      5494164      0.00%      0.00%
system.ruby.Directory_Controller.BS_M.MemData         8534      0.00%      0.00%
system.ruby.Directory_Controller.BM_M.RdBlk            1      0.00%      0.00%
system.ruby.Directory_Controller.BM_M.WriteThrough          566      0.00%      0.00%
system.ruby.Directory_Controller.BM_M.MemData       565871      0.00%      0.00%
system.ruby.Directory_Controller.B_M.RdBlk            3      0.00%      0.00%
system.ruby.Directory_Controller.B_M.WriteThrough            1      0.00%      0.00%
system.ruby.Directory_Controller.B_M.MemData       158340      0.00%      0.00%
system.ruby.Directory_Controller.BDR_PM.CPUPrbResp           26      0.00%      0.00%
system.ruby.Directory_Controller.BDR_PM.MemData           26      0.00%      0.00%
system.ruby.Directory_Controller.BS_PM.CPUPrbResp         8535      0.00%      0.00%
system.ruby.Directory_Controller.BS_PM.ProbeAcksComplete         8534      0.00%      0.00%
system.ruby.Directory_Controller.BS_PM.L3Hit        11037      0.00%      0.00%
system.ruby.Directory_Controller.BS_PM.MemData           32      0.00%      0.00%
system.ruby.Directory_Controller.BM_PM.WriteThrough         3558      0.00%      0.00%
system.ruby.Directory_Controller.BM_PM.CPUPrbResp       566312      0.00%      0.00%
system.ruby.Directory_Controller.BM_PM.ProbeAcksComplete       565871      0.00%      0.00%
system.ruby.Directory_Controller.BM_PM.L3Hit      2271571      0.00%      0.00%
system.ruby.Directory_Controller.BM_PM.MemData        37502      0.00%      0.00%
system.ruby.Directory_Controller.B_PM.RdBlk            2      0.00%      0.00%
system.ruby.Directory_Controller.B_PM.CPUPrbResp       158643      0.00%      0.00%
system.ruby.Directory_Controller.B_PM.ProbeAcksComplete       158340      0.00%      0.00%
system.ruby.Directory_Controller.B_PM.L3Hit      2699332      0.00%      0.00%
system.ruby.Directory_Controller.B_PM.MemData        30964      0.00%      0.00%
system.ruby.Directory_Controller.BDW_P.CPUPrbResp           20      0.00%      0.00%
system.ruby.Directory_Controller.BDW_P.ProbeAcksComplete           10      0.00%      0.00%
system.ruby.Directory_Controller.BDR_Pm.CPUPrbResp           26      0.00%      0.00%
system.ruby.Directory_Controller.BDR_Pm.ProbeAcksComplete           26      0.00%      0.00%
system.ruby.Directory_Controller.BS_Pm.CPUPrbResp        11068      0.00%      0.00%
system.ruby.Directory_Controller.BS_Pm.ProbeAcksComplete        11069      0.00%      0.00%
system.ruby.Directory_Controller.BM_Pm.WriteThrough          477      0.00%      0.00%
system.ruby.Directory_Controller.BM_Pm.CPUPrbResp      2308632      0.00%      0.00%
system.ruby.Directory_Controller.BM_Pm.ProbeAcksComplete      2309073      0.00%      0.00%
system.ruby.Directory_Controller.B_Pm.CPUPrbResp      2729993      0.00%      0.00%
system.ruby.Directory_Controller.B_Pm.ProbeAcksComplete      2730296      0.00%      0.00%
system.ruby.Directory_Controller.B.RdBlk            6      0.00%      0.00%
system.ruby.Directory_Controller.B.WriteThrough           12      0.00%      0.00%
system.ruby.Directory_Controller.B.CoreUnblock      5708832      0.00%      0.00%
system.ruby.Directory_Controller.B.UnblockWriteThrough        74350      0.00%      0.00%
system.ruby.SQC_Controller.Fetch         |      168420     66.00%     66.00% |       86751     34.00%    100.00%
system.ruby.SQC_Controller.Fetch::total        255171                      
system.ruby.SQC_Controller.Data          |          31     79.49%     79.49% |           8     20.51%    100.00%
system.ruby.SQC_Controller.Data::total             39                      
system.ruby.SQC_Controller.I.Fetch       |          31     79.49%     79.49% |           8     20.51%    100.00%
system.ruby.SQC_Controller.I.Fetch::total           39                      
system.ruby.SQC_Controller.I.Data        |          31     79.49%     79.49% |           8     20.51%    100.00%
system.ruby.SQC_Controller.I.Data::total           39                      
system.ruby.SQC_Controller.V.Fetch       |      168389     66.00%     66.00% |       86743     34.00%    100.00%
system.ruby.SQC_Controller.V.Fetch::total       255132                      
system.ruby.TCC_Controller.RdBlk               236515      0.00%      0.00%
system.ruby.TCC_Controller.WrVicBlk             74350      0.00%      0.00%
system.ruby.TCC_Controller.Data                180686      0.00%      0.00%
system.ruby.TCC_Controller.L2_Repl             176268      0.00%      0.00%
system.ruby.TCC_Controller.PrbInv             5528183      0.00%      0.00%
system.ruby.TCC_Controller.WBAck                74350      0.00%      0.00%
system.ruby.TCC_Controller.V.RdBlk              51229      0.00%      0.00%
system.ruby.TCC_Controller.V.L2_Repl           175559      0.00%      0.00%
system.ruby.TCC_Controller.V.PrbInv              3080      0.00%      0.00%
system.ruby.TCC_Controller.I.RdBlk             180686      0.00%      0.00%
system.ruby.TCC_Controller.I.WrVicBlk           74350      0.00%      0.00%
system.ruby.TCC_Controller.I.L2_Repl              709      0.00%      0.00%
system.ruby.TCC_Controller.I.PrbInv           5525101      0.00%      0.00%
system.ruby.TCC_Controller.I.WBAck              74350      0.00%      0.00%
system.ruby.TCC_Controller.IV.RdBlk              4600      0.00%      0.00%
system.ruby.TCC_Controller.IV.Data             180686      0.00%      0.00%
system.ruby.TCC_Controller.IV.PrbInv                2      0.00%      0.00%
system.ruby.TCP_Controller.Load          |      163184     25.11%     25.11% |      162095     24.95%     50.06% |      162157     24.96%     75.01% |      162354     24.99%    100.00%
system.ruby.TCP_Controller.Load::total         649790                      
system.ruby.TCP_Controller.StoreThrough  |       18642     25.07%     25.07% |       18601     25.02%     50.09% |       18599     25.02%     75.11% |       18508     24.89%    100.00%
system.ruby.TCP_Controller.StoreThrough::total        74350                      
system.ruby.TCP_Controller.Evict         |        1024     25.00%     25.00% |        1024     25.00%     50.00% |        1024     25.00%     75.00% |        1024     25.00%    100.00%
system.ruby.TCP_Controller.Evict::total          4096                      
system.ruby.TCP_Controller.Repl          |       58415     25.02%     25.02% |       58364     25.00%     50.02% |       58562     25.08%     75.10% |       58138     24.90%    100.00%
system.ruby.TCP_Controller.Repl::total         233479                      
system.ruby.TCP_Controller.TCC_Ack       |       59165     25.02%     25.02% |       59115     25.00%     50.02% |       59310     25.08%     75.10% |       58886     24.90%    100.00%
system.ruby.TCP_Controller.TCC_Ack::total       236476                      
system.ruby.TCP_Controller.TCC_AckWB     |       18642     25.07%     25.07% |       18601     25.02%     50.09% |       18599     25.02%     75.11% |       18508     24.89%    100.00%
system.ruby.TCP_Controller.TCC_AckWB::total        74350                      
system.ruby.TCP_Controller.I.Load        |       59165     25.02%     25.02% |       59115     25.00%     50.02% |       59310     25.08%     75.10% |       58886     24.90%    100.00%
system.ruby.TCP_Controller.I.Load::total       236476                      
system.ruby.TCP_Controller.I.StoreThrough |       18642     25.07%     25.07% |       18601     25.02%     50.09% |       18599     25.02%     75.11% |       18508     24.89%    100.00%
system.ruby.TCP_Controller.I.StoreThrough::total        74350                      
system.ruby.TCP_Controller.I.Evict       |         530     24.96%     24.96% |         529     24.92%     49.88% |         532     25.06%     74.94% |         532     25.06%    100.00%
system.ruby.TCP_Controller.I.Evict::total         2123                      
system.ruby.TCP_Controller.I.TCC_Ack     |       59165     25.02%     25.02% |       59115     25.00%     50.02% |       59310     25.08%     75.10% |       58886     24.90%    100.00%
system.ruby.TCP_Controller.I.TCC_Ack::total       236476                      
system.ruby.TCP_Controller.I.TCC_AckWB   |       18642     25.07%     25.07% |       18601     25.02%     50.09% |       18599     25.02%     75.11% |       18508     24.89%    100.00%
system.ruby.TCP_Controller.I.TCC_AckWB::total        74350                      
system.ruby.TCP_Controller.V.Load        |      104019     25.17%     25.17% |      102980     24.92%     50.08% |      102847     24.88%     74.97% |      103468     25.03%    100.00%
system.ruby.TCP_Controller.V.Load::total       413314                      
system.ruby.TCP_Controller.V.Evict       |         494     25.04%     25.04% |         495     25.09%     50.13% |         492     24.94%     75.06% |         492     24.94%    100.00%
system.ruby.TCP_Controller.V.Evict::total         1973                      
system.ruby.TCP_Controller.V.Repl        |       58415     25.02%     25.02% |       58364     25.00%     50.02% |       58562     25.08%     75.10% |       58138     24.90%    100.00%
system.ruby.TCP_Controller.V.Repl::total       233479                      

---------- End Simulation Statistics   ----------
