
---------- Begin Simulation Statistics ----------
sim_seconds                                  0.122787                       # Number of seconds simulated
sim_ticks                                122787258000                       # Number of ticks simulated
final_tick                               122787258000                       # Number of ticks from beginning of simulation (restored from checkpoints and never reset)
sim_freq                                 1000000000000                       # Frequency of simulated ticks
host_inst_rate                                 353575                       # Simulator instruction rate (inst/s)
host_op_rate                                   676644                       # Simulator op (including micro ops) rate (op/s)
host_tick_rate                              255514891                       # Simulator tick rate (ticks/s)
host_mem_usage                                1654348                       # Number of bytes of host memory used
host_seconds                                   480.55                       # Real time elapsed on the host
sim_insts                                   169909861                       # Number of instructions simulated
sim_ops                                     325159942                       # Number of ops (including micro ops) simulated
system.voltage_domain.voltage                       1                       # Voltage in Volts
system.clk_domain.clock                          1000                       # Clock period in ticks
system.mem_ctrls.pwrStateResidencyTicks::UNDEFINED 122787258000                       # Cumulative time (in ticks) in various power states
system.mem_ctrls.bytes_read::ruby.dir_cntrl0     17728832                       # Number of bytes read from this memory
system.mem_ctrls.bytes_read::total           17728832                       # Number of bytes read from this memory
system.mem_ctrls.bytes_written::ruby.dir_cntrl0       384576                       # Number of bytes written to this memory
system.mem_ctrls.bytes_written::total          384576                       # Number of bytes written to this memory
system.mem_ctrls.num_reads::ruby.dir_cntrl0       277013                       # Number of read requests responded to by this memory
system.mem_ctrls.num_reads::total              277013                       # Number of read requests responded to by this memory
system.mem_ctrls.num_writes::ruby.dir_cntrl0         6009                       # Number of write requests responded to by this memory
system.mem_ctrls.num_writes::total               6009                       # Number of write requests responded to by this memory
system.mem_ctrls.bw_read::ruby.dir_cntrl0    144386578                       # Total read bandwidth from this memory (bytes/s)
system.mem_ctrls.bw_read::total             144386578                       # Total read bandwidth from this memory (bytes/s)
system.mem_ctrls.bw_write::ruby.dir_cntrl0      3132051                       # Write bandwidth from this memory (bytes/s)
system.mem_ctrls.bw_write::total              3132051                       # Write bandwidth from this memory (bytes/s)
system.mem_ctrls.bw_total::ruby.dir_cntrl0    147518629                       # Total bandwidth to/from this memory (bytes/s)
system.mem_ctrls.bw_total::total            147518629                       # Total bandwidth to/from this memory (bytes/s)
system.mem_ctrls.readReqs                      277013                       # Number of read requests accepted
system.mem_ctrls.writeReqs                       6009                       # Number of write requests accepted
system.mem_ctrls.readBursts                    277013                       # Number of DRAM read bursts, including those serviced by the write queue
system.mem_ctrls.writeBursts                     6009                       # Number of DRAM write bursts, including those merged in the write queue
system.mem_ctrls.bytesReadDRAM               17728320                       # Total number of bytes read from DRAM
system.mem_ctrls.bytesReadWrQ                     512                       # Total number of bytes read from write queue
system.mem_ctrls.bytesWritten                  383488                       # Total number of bytes written to DRAM
system.mem_ctrls.bytesReadSys                17728832                       # Total read bytes from the system interface side
system.mem_ctrls.bytesWrittenSys               384576                       # Total written bytes from the system interface side
system.mem_ctrls.servicedByWrQ                      8                       # Number of DRAM read bursts serviced by the write queue
system.mem_ctrls.mergedWrBursts                     0                       # Number of DRAM write bursts merged with an existing one
system.mem_ctrls.neitherReadNorWriteReqs            0                       # Number of requests that are neither read nor write
system.mem_ctrls.perBankRdBursts::0             17500                       # Per bank write bursts
system.mem_ctrls.perBankRdBursts::1             17361                       # Per bank write bursts
system.mem_ctrls.perBankRdBursts::2             17502                       # Per bank write bursts
system.mem_ctrls.perBankRdBursts::3             17364                       # Per bank write bursts
system.mem_ctrls.perBankRdBursts::4             17472                       # Per bank write bursts
system.mem_ctrls.perBankRdBursts::5             17076                       # Per bank write bursts
system.mem_ctrls.perBankRdBursts::6             17282                       # Per bank write bursts
system.mem_ctrls.perBankRdBursts::7             17210                       # Per bank write bursts
system.mem_ctrls.perBankRdBursts::8             17373                       # Per bank write bursts
system.mem_ctrls.perBankRdBursts::9             17232                       # Per bank write bursts
system.mem_ctrls.perBankRdBursts::10            17416                       # Per bank write bursts
system.mem_ctrls.perBankRdBursts::11            17100                       # Per bank write bursts
system.mem_ctrls.perBankRdBursts::12            17343                       # Per bank write bursts
system.mem_ctrls.perBankRdBursts::13            17345                       # Per bank write bursts
system.mem_ctrls.perBankRdBursts::14            17176                       # Per bank write bursts
system.mem_ctrls.perBankRdBursts::15            17253                       # Per bank write bursts
system.mem_ctrls.perBankWrBursts::0               347                       # Per bank write bursts
system.mem_ctrls.perBankWrBursts::1               379                       # Per bank write bursts
system.mem_ctrls.perBankWrBursts::2               363                       # Per bank write bursts
system.mem_ctrls.perBankWrBursts::3               404                       # Per bank write bursts
system.mem_ctrls.perBankWrBursts::4               396                       # Per bank write bursts
system.mem_ctrls.perBankWrBursts::5               353                       # Per bank write bursts
system.mem_ctrls.perBankWrBursts::6               349                       # Per bank write bursts
system.mem_ctrls.perBankWrBursts::7               342                       # Per bank write bursts
system.mem_ctrls.perBankWrBursts::8               380                       # Per bank write bursts
system.mem_ctrls.perBankWrBursts::9               350                       # Per bank write bursts
system.mem_ctrls.perBankWrBursts::10              397                       # Per bank write bursts
system.mem_ctrls.perBankWrBursts::11              377                       # Per bank write bursts
system.mem_ctrls.perBankWrBursts::12              395                       # Per bank write bursts
system.mem_ctrls.perBankWrBursts::13              426                       # Per bank write bursts
system.mem_ctrls.perBankWrBursts::14              373                       # Per bank write bursts
system.mem_ctrls.perBankWrBursts::15              361                       # Per bank write bursts
system.mem_ctrls.numRdRetry                         0                       # Number of times read queue was full causing retry
system.mem_ctrls.numWrRetry                         0                       # Number of times write queue was full causing retry
system.mem_ctrls.totGap                  122787131500                       # Total gap between requests
system.mem_ctrls.readPktSize::0                     0                       # Read request sizes (log2)
system.mem_ctrls.readPktSize::1                     0                       # Read request sizes (log2)
system.mem_ctrls.readPktSize::2                     0                       # Read request sizes (log2)
system.mem_ctrls.readPktSize::3                     0                       # Read request sizes (log2)
system.mem_ctrls.readPktSize::4                     0                       # Read request sizes (log2)
system.mem_ctrls.readPktSize::5                     0                       # Read request sizes (log2)
system.mem_ctrls.readPktSize::6                277013                       # Read request sizes (log2)
system.mem_ctrls.writePktSize::0                    0                       # Write request sizes (log2)
system.mem_ctrls.writePktSize::1                    0                       # Write request sizes (log2)
system.mem_ctrls.writePktSize::2                    0                       # Write request sizes (log2)
system.mem_ctrls.writePktSize::3                    0                       # Write request sizes (log2)
system.mem_ctrls.writePktSize::4                    0                       # Write request sizes (log2)
system.mem_ctrls.writePktSize::5                    0                       # Write request sizes (log2)
system.mem_ctrls.writePktSize::6                 6009                       # Write request sizes (log2)
system.mem_ctrls.rdQLenPdf::0                  268390                       # What read queue length does an incoming req see
system.mem_ctrls.rdQLenPdf::1                     226                       # What read queue length does an incoming req see
system.mem_ctrls.rdQLenPdf::2                     241                       # What read queue length does an incoming req see
system.mem_ctrls.rdQLenPdf::3                     291                       # What read queue length does an incoming req see
system.mem_ctrls.rdQLenPdf::4                     311                       # What read queue length does an incoming req see
system.mem_ctrls.rdQLenPdf::5                     342                       # What read queue length does an incoming req see
system.mem_ctrls.rdQLenPdf::6                     334                       # What read queue length does an incoming req see
system.mem_ctrls.rdQLenPdf::7                     347                       # What read queue length does an incoming req see
system.mem_ctrls.rdQLenPdf::8                     356                       # What read queue length does an incoming req see
system.mem_ctrls.rdQLenPdf::9                     349                       # What read queue length does an incoming req see
system.mem_ctrls.rdQLenPdf::10                    362                       # What read queue length does an incoming req see
system.mem_ctrls.rdQLenPdf::11                    341                       # What read queue length does an incoming req see
system.mem_ctrls.rdQLenPdf::12                    362                       # What read queue length does an incoming req see
system.mem_ctrls.rdQLenPdf::13                    356                       # What read queue length does an incoming req see
system.mem_ctrls.rdQLenPdf::14                    292                       # What read queue length does an incoming req see
system.mem_ctrls.rdQLenPdf::15                    286                       # What read queue length does an incoming req see
system.mem_ctrls.rdQLenPdf::16                    224                       # What read queue length does an incoming req see
system.mem_ctrls.rdQLenPdf::17                    227                       # What read queue length does an incoming req see
system.mem_ctrls.rdQLenPdf::18                    185                       # What read queue length does an incoming req see
system.mem_ctrls.rdQLenPdf::19                    200                       # What read queue length does an incoming req see
system.mem_ctrls.rdQLenPdf::20                    171                       # What read queue length does an incoming req see
system.mem_ctrls.rdQLenPdf::21                    161                       # What read queue length does an incoming req see
system.mem_ctrls.rdQLenPdf::22                    171                       # What read queue length does an incoming req see
system.mem_ctrls.rdQLenPdf::23                    155                       # What read queue length does an incoming req see
system.mem_ctrls.rdQLenPdf::24                    147                       # What read queue length does an incoming req see
system.mem_ctrls.rdQLenPdf::25                    128                       # What read queue length does an incoming req see
system.mem_ctrls.rdQLenPdf::26                    143                       # What read queue length does an incoming req see
system.mem_ctrls.rdQLenPdf::27                    146                       # What read queue length does an incoming req see
system.mem_ctrls.rdQLenPdf::28                    121                       # What read queue length does an incoming req see
system.mem_ctrls.rdQLenPdf::29                    122                       # What read queue length does an incoming req see
system.mem_ctrls.rdQLenPdf::30                    137                       # What read queue length does an incoming req see
system.mem_ctrls.rdQLenPdf::31                   1381                       # What read queue length does an incoming req see
system.mem_ctrls.wrQLenPdf::0                       1                       # What write queue length does an incoming req see
system.mem_ctrls.wrQLenPdf::1                       1                       # What write queue length does an incoming req see
system.mem_ctrls.wrQLenPdf::2                       1                       # What write queue length does an incoming req see
system.mem_ctrls.wrQLenPdf::3                       1                       # What write queue length does an incoming req see
system.mem_ctrls.wrQLenPdf::4                       1                       # What write queue length does an incoming req see
system.mem_ctrls.wrQLenPdf::5                       1                       # What write queue length does an incoming req see
system.mem_ctrls.wrQLenPdf::6                       1                       # What write queue length does an incoming req see
system.mem_ctrls.wrQLenPdf::7                       1                       # What write queue length does an incoming req see
system.mem_ctrls.wrQLenPdf::8                       1                       # What write queue length does an incoming req see
system.mem_ctrls.wrQLenPdf::9                       1                       # What write queue length does an incoming req see
system.mem_ctrls.wrQLenPdf::10                      1                       # What write queue length does an incoming req see
system.mem_ctrls.wrQLenPdf::11                      1                       # What write queue length does an incoming req see
system.mem_ctrls.wrQLenPdf::12                      1                       # What write queue length does an incoming req see
system.mem_ctrls.wrQLenPdf::13                      1                       # What write queue length does an incoming req see
system.mem_ctrls.wrQLenPdf::14                      1                       # What write queue length does an incoming req see
system.mem_ctrls.wrQLenPdf::15                    153                       # What write queue length does an incoming req see
system.mem_ctrls.wrQLenPdf::16                    157                       # What write queue length does an incoming req see
system.mem_ctrls.wrQLenPdf::17                    305                       # What write queue length does an incoming req see
system.mem_ctrls.wrQLenPdf::18                    362                       # What write queue length does an incoming req see
system.mem_ctrls.wrQLenPdf::19                    362                       # What write queue length does an incoming req see
system.mem_ctrls.wrQLenPdf::20                    361                       # What write queue length does an incoming req see
system.mem_ctrls.wrQLenPdf::21                    361                       # What write queue length does an incoming req see
system.mem_ctrls.wrQLenPdf::22                    358                       # What write queue length does an incoming req see
system.mem_ctrls.wrQLenPdf::23                    356                       # What write queue length does an incoming req see
system.mem_ctrls.wrQLenPdf::24                    356                       # What write queue length does an incoming req see
system.mem_ctrls.wrQLenPdf::25                    354                       # What write queue length does an incoming req see
system.mem_ctrls.wrQLenPdf::26                    354                       # What write queue length does an incoming req see
system.mem_ctrls.wrQLenPdf::27                    354                       # What write queue length does an incoming req see
system.mem_ctrls.wrQLenPdf::28                    354                       # What write queue length does an incoming req see
system.mem_ctrls.wrQLenPdf::29                    355                       # What write queue length does an incoming req see
system.mem_ctrls.wrQLenPdf::30                    355                       # What write queue length does an incoming req see
system.mem_ctrls.wrQLenPdf::31                    354                       # What write queue length does an incoming req see
system.mem_ctrls.wrQLenPdf::32                    354                       # What write queue length does an incoming req see
system.mem_ctrls.wrQLenPdf::33                     24                       # What write queue length does an incoming req see
system.mem_ctrls.wrQLenPdf::34                      5                       # What write queue length does an incoming req see
system.mem_ctrls.wrQLenPdf::35                      0                       # What write queue length does an incoming req see
system.mem_ctrls.wrQLenPdf::36                      0                       # What write queue length does an incoming req see
system.mem_ctrls.wrQLenPdf::37                      0                       # What write queue length does an incoming req see
system.mem_ctrls.wrQLenPdf::38                      0                       # What write queue length does an incoming req see
system.mem_ctrls.wrQLenPdf::39                      0                       # What write queue length does an incoming req see
system.mem_ctrls.wrQLenPdf::40                      0                       # What write queue length does an incoming req see
system.mem_ctrls.wrQLenPdf::41                      0                       # What write queue length does an incoming req see
system.mem_ctrls.wrQLenPdf::42                      0                       # What write queue length does an incoming req see
system.mem_ctrls.wrQLenPdf::43                      0                       # What write queue length does an incoming req see
system.mem_ctrls.wrQLenPdf::44                      0                       # What write queue length does an incoming req see
system.mem_ctrls.wrQLenPdf::45                      0                       # What write queue length does an incoming req see
system.mem_ctrls.wrQLenPdf::46                      0                       # What write queue length does an incoming req see
system.mem_ctrls.wrQLenPdf::47                      0                       # What write queue length does an incoming req see
system.mem_ctrls.wrQLenPdf::48                      0                       # What write queue length does an incoming req see
system.mem_ctrls.wrQLenPdf::49                      0                       # What write queue length does an incoming req see
system.mem_ctrls.wrQLenPdf::50                      0                       # What write queue length does an incoming req see
system.mem_ctrls.wrQLenPdf::51                      0                       # What write queue length does an incoming req see
system.mem_ctrls.wrQLenPdf::52                      0                       # What write queue length does an incoming req see
system.mem_ctrls.wrQLenPdf::53                      0                       # What write queue length does an incoming req see
system.mem_ctrls.wrQLenPdf::54                      0                       # What write queue length does an incoming req see
system.mem_ctrls.wrQLenPdf::55                      0                       # What write queue length does an incoming req see
system.mem_ctrls.wrQLenPdf::56                      0                       # What write queue length does an incoming req see
system.mem_ctrls.wrQLenPdf::57                      0                       # What write queue length does an incoming req see
system.mem_ctrls.wrQLenPdf::58                      0                       # What write queue length does an incoming req see
system.mem_ctrls.wrQLenPdf::59                      0                       # What write queue length does an incoming req see
system.mem_ctrls.wrQLenPdf::60                      0                       # What write queue length does an incoming req see
system.mem_ctrls.wrQLenPdf::61                      0                       # What write queue length does an incoming req see
system.mem_ctrls.wrQLenPdf::62                      0                       # What write queue length does an incoming req see
system.mem_ctrls.wrQLenPdf::63                      0                       # What write queue length does an incoming req see
system.mem_ctrls.bytesPerActivate::samples        37953                       # Bytes accessed per row activation
system.mem_ctrls.bytesPerActivate::mean    477.199905                       # Bytes accessed per row activation
system.mem_ctrls.bytesPerActivate::gmean   270.880458                       # Bytes accessed per row activation
system.mem_ctrls.bytesPerActivate::stdev   413.367674                       # Bytes accessed per row activation
system.mem_ctrls.bytesPerActivate::0-127        11992     31.60%     31.60% # Bytes accessed per row activation
system.mem_ctrls.bytesPerActivate::128-255         5261     13.86%     45.46% # Bytes accessed per row activation
system.mem_ctrls.bytesPerActivate::256-383         2518      6.63%     52.09% # Bytes accessed per row activation
system.mem_ctrls.bytesPerActivate::384-511         1337      3.52%     55.62% # Bytes accessed per row activation
system.mem_ctrls.bytesPerActivate::512-639         2909      7.66%     63.28% # Bytes accessed per row activation
system.mem_ctrls.bytesPerActivate::640-767          826      2.18%     65.46% # Bytes accessed per row activation
system.mem_ctrls.bytesPerActivate::768-895          636      1.68%     67.13% # Bytes accessed per row activation
system.mem_ctrls.bytesPerActivate::896-1023          691      1.82%     68.95% # Bytes accessed per row activation
system.mem_ctrls.bytesPerActivate::1024-1151        11783     31.05%    100.00% # Bytes accessed per row activation
system.mem_ctrls.bytesPerActivate::total        37953                       # Bytes accessed per row activation
system.mem_ctrls.rdPerTurnAround::samples          354                       # Reads before turning the bus around for writes
system.mem_ctrls.rdPerTurnAround::mean     782.387006                       # Reads before turning the bus around for writes
system.mem_ctrls.rdPerTurnAround::stdev   9917.660867                       # Reads before turning the bus around for writes
system.mem_ctrls.rdPerTurnAround::0-8191          353     99.72%     99.72% # Reads before turning the bus around for writes
system.mem_ctrls.rdPerTurnAround::180224-188415            1      0.28%    100.00% # Reads before turning the bus around for writes
system.mem_ctrls.rdPerTurnAround::total           354                       # Reads before turning the bus around for writes
system.mem_ctrls.wrPerTurnAround::samples          354                       # Writes before turning the bus around for reads
system.mem_ctrls.wrPerTurnAround::mean      16.926554                       # Writes before turning the bus around for reads
system.mem_ctrls.wrPerTurnAround::gmean     16.892959                       # Writes before turning the bus around for reads
system.mem_ctrls.wrPerTurnAround::stdev      1.077835                       # Writes before turning the bus around for reads
system.mem_ctrls.wrPerTurnAround::16              197     55.65%     55.65% # Writes before turning the bus around for reads
system.mem_ctrls.wrPerTurnAround::17                5      1.41%     57.06% # Writes before turning the bus around for reads
system.mem_ctrls.wrPerTurnAround::18              136     38.42%     95.48% # Writes before turning the bus around for reads
system.mem_ctrls.wrPerTurnAround::19               13      3.67%     99.15% # Writes before turning the bus around for reads
system.mem_ctrls.wrPerTurnAround::20                3      0.85%    100.00% # Writes before turning the bus around for reads
system.mem_ctrls.wrPerTurnAround::total           354                       # Writes before turning the bus around for reads
system.mem_ctrls.totQLat                   4397426500                       # Total ticks spent queuing
system.mem_ctrls.totMemAccLat              9591270250                       # Total ticks spent from burst creation until serviced by the DRAM
system.mem_ctrls.totBusLat                 1385025000                       # Total ticks spent in databus transfers
system.mem_ctrls.avgQLat                     15874.90                       # Average queueing delay per DRAM burst
system.mem_ctrls.avgBusLat                    5000.00                       # Average bus latency per DRAM burst
system.mem_ctrls.avgMemAccLat                34624.90                       # Average memory access latency per DRAM burst
system.mem_ctrls.avgRdBW                       144.38                       # Average DRAM read bandwidth in MiByte/s
system.mem_ctrls.avgWrBW                         3.12                       # Average achieved write bandwidth in MiByte/s
system.mem_ctrls.avgRdBWSys                    144.39                       # Average system read bandwidth in MiByte/s
system.mem_ctrls.avgWrBWSys                      3.13                       # Average system write bandwidth in MiByte/s
system.mem_ctrls.peakBW                      12800.00                       # Theoretical peak bandwidth in MiByte/s
system.mem_ctrls.busUtil                         1.15                       # Data bus utilization in percentage
system.mem_ctrls.busUtilRead                     1.13                       # Data bus utilization in percentage for reads
system.mem_ctrls.busUtilWrite                    0.02                       # Data bus utilization in percentage for writes
system.mem_ctrls.avgRdQLen                       1.01                       # Average read queue length when enqueuing
system.mem_ctrls.avgWrQLen                      13.80                       # Average write queue length when enqueuing
system.mem_ctrls.readRowHits                   244433                       # Number of row buffer hits during reads
system.mem_ctrls.writeRowHits                     607                       # Number of row buffer hits during writes
system.mem_ctrls.readRowHitRate                 88.24                       # Row buffer hit rate for reads
system.mem_ctrls.writeRowHitRate                10.10                       # Row buffer hit rate for writes
system.mem_ctrls.avgGap                     433843.06                       # Average gap between requests
system.mem_ctrls.pageHitRate                    86.58                       # Row buffer hit rate, read and write combined
system.mem_ctrls_0.actEnergy                136031280                       # Energy for activate commands per rank (pJ)
system.mem_ctrls_0.preEnergy                 72290955                       # Energy for precharge commands per rank (pJ)
system.mem_ctrls_0.readEnergy               990796380                       # Energy for read commands per rank (pJ)
system.mem_ctrls_0.writeEnergy               15310260                       # Energy for write commands per rank (pJ)
system.mem_ctrls_0.refreshEnergy         3150644640.000000                       # Energy for refresh commands per rank (pJ)
system.mem_ctrls_0.actBackEnergy           2516056380                       # Energy for active background per rank (pJ)
system.mem_ctrls_0.preBackEnergy            160984800                       # Energy for precharge background per rank (pJ)
system.mem_ctrls_0.actPowerDownEnergy     12398694720                       # Energy for active power-down per rank (pJ)
system.mem_ctrls_0.prePowerDownEnergy      2673561600                       # Energy for precharge power-down per rank (pJ)
system.mem_ctrls_0.selfRefreshEnergy      20208094320                       # Energy for self refresh per rank (pJ)
system.mem_ctrls_0.totalEnergy            42324660495                       # Total energy per rank (pJ)
system.mem_ctrls_0.averagePower            344.699126                       # Core power per rank (mW)
system.mem_ctrls_0.totalIdleTime         116845379000                       # Total Idle time Per DRAM Rank
system.mem_ctrls_0.memoryStateTime::IDLE    230522750                       # Time in different power states
system.mem_ctrls_0.memoryStateTime::REF    1332760000                       # Time in different power states
system.mem_ctrls_0.memoryStateTime::SREF  82692967750                       # Time in different power states
system.mem_ctrls_0.memoryStateTime::PRE_PDN   6962266750                       # Time in different power states
system.mem_ctrls_0.memoryStateTime::ACT    4378557500                       # Time in different power states
system.mem_ctrls_0.memoryStateTime::ACT_PDN  27190183250                       # Time in different power states
system.mem_ctrls_1.actEnergy                134981700                       # Energy for activate commands per rank (pJ)
system.mem_ctrls_1.preEnergy                 71740680                       # Energy for precharge commands per rank (pJ)
system.mem_ctrls_1.readEnergy               987019320                       # Energy for read commands per rank (pJ)
system.mem_ctrls_1.writeEnergy               15967980                       # Energy for write commands per rank (pJ)
system.mem_ctrls_1.refreshEnergy         3292011840.000000                       # Energy for refresh commands per rank (pJ)
system.mem_ctrls_1.actBackEnergy           2521821930                       # Energy for active background per rank (pJ)
system.mem_ctrls_1.preBackEnergy            172768320                       # Energy for precharge background per rank (pJ)
system.mem_ctrls_1.actPowerDownEnergy     12744814680                       # Energy for active power-down per rank (pJ)
system.mem_ctrls_1.prePowerDownEnergy      3062739840                       # Energy for precharge power-down per rank (pJ)
system.mem_ctrls_1.selfRefreshEnergy      19821439680                       # Energy for self refresh per rank (pJ)
system.mem_ctrls_1.totalEnergy            42826994220                       # Total energy per rank (pJ)
system.mem_ctrls_1.averagePower            348.790216                       # Core power per rank (mW)
system.mem_ctrls_1.totalIdleTime         116803073750                       # Total Idle time Per DRAM Rank
system.mem_ctrls_1.memoryStateTime::IDLE    255804750                       # Time in different power states
system.mem_ctrls_1.memoryStateTime::REF    1392560000                       # Time in different power states
system.mem_ctrls_1.memoryStateTime::SREF  80878231500                       # Time in different power states
system.mem_ctrls_1.memoryStateTime::PRE_PDN   7975972500                       # Time in different power states
system.mem_ctrls_1.memoryStateTime::ACT    4335381250                       # Time in different power states
system.mem_ctrls_1.memoryStateTime::ACT_PDN  27949308000                       # Time in different power states
system.ruby.clk_domain.clock                      500                       # Clock period in ticks
system.ruby.phys_mem.pwrStateResidencyTicks::UNDEFINED 122787258000                       # Cumulative time (in ticks) in various power states
system.ruby.phys_mem.bytes_read::cpu0.workload.drivers.device.hsapp          192                       # Number of bytes read from this memory
system.ruby.phys_mem.bytes_read::cpu0.workload.drivers.device          260                       # Number of bytes read from this memory
system.ruby.phys_mem.bytes_read::cpu0.inst    781193584                       # Number of bytes read from this memory
system.ruby.phys_mem.bytes_read::cpu0.data    129751006                       # Number of bytes read from this memory
system.ruby.phys_mem.bytes_read::cpu1.inst   1047972408                       # Number of bytes read from this memory
system.ruby.phys_mem.bytes_read::cpu1.data    304532764                       # Number of bytes read from this memory
system.ruby.phys_mem.bytes_read::cpu2.CUs0.ComputeUnit       402432                       # Number of bytes read from this memory
system.ruby.phys_mem.bytes_read::cpu2.CUs1.ComputeUnit       402432                       # Number of bytes read from this memory
system.ruby.phys_mem.bytes_read::cpu2.CUs2.ComputeUnit       402432                       # Number of bytes read from this memory
system.ruby.phys_mem.bytes_read::cpu2.CUs3.ComputeUnit       402432                       # Number of bytes read from this memory
system.ruby.phys_mem.bytes_read::total     2265059942                       # Number of bytes read from this memory
system.ruby.phys_mem.bytes_inst_read::cpu0.inst    781193584                       # Number of instructions bytes read from this memory
system.ruby.phys_mem.bytes_inst_read::cpu1.inst   1047972408                       # Number of instructions bytes read from this memory
system.ruby.phys_mem.bytes_inst_read::cpu2.CUs0.ComputeUnit       196608                       # Number of instructions bytes read from this memory
system.ruby.phys_mem.bytes_inst_read::cpu2.CUs1.ComputeUnit       196608                       # Number of instructions bytes read from this memory
system.ruby.phys_mem.bytes_inst_read::cpu2.CUs2.ComputeUnit       196608                       # Number of instructions bytes read from this memory
system.ruby.phys_mem.bytes_inst_read::cpu2.CUs3.ComputeUnit       196608                       # Number of instructions bytes read from this memory
system.ruby.phys_mem.bytes_inst_read::total   1829952424                       # Number of instructions bytes read from this memory
system.ruby.phys_mem.bytes_written::cpu0.workload.drivers.device.hsapp           24                       # Number of bytes written to this memory
system.ruby.phys_mem.bytes_written::cpu0.workload.drivers.device            8                       # Number of bytes written to this memory
system.ruby.phys_mem.bytes_written::cpu0.data     70622441                       # Number of bytes written to this memory
system.ruby.phys_mem.bytes_written::cpu1.data     20659563                       # Number of bytes written to this memory
system.ruby.phys_mem.bytes_written::cpu2.CUs0.ComputeUnit         4704                       # Number of bytes written to this memory
system.ruby.phys_mem.bytes_written::cpu2.CUs1.ComputeUnit         4888                       # Number of bytes written to this memory
system.ruby.phys_mem.bytes_written::cpu2.CUs2.ComputeUnit         5824                       # Number of bytes written to this memory
system.ruby.phys_mem.bytes_written::cpu2.CUs3.ComputeUnit         4712                       # Number of bytes written to this memory
system.ruby.phys_mem.bytes_written::total     91302164                       # Number of bytes written to this memory
system.ruby.phys_mem.num_reads::cpu0.workload.drivers.device.hsapp            3                       # Number of read requests responded to by this memory
system.ruby.phys_mem.num_reads::cpu0.workload.drivers.device            5                       # Number of read requests responded to by this memory
system.ruby.phys_mem.num_reads::cpu0.inst     97649198                       # Number of read requests responded to by this memory
system.ruby.phys_mem.num_reads::cpu0.data     19702440                       # Number of read requests responded to by this memory
system.ruby.phys_mem.num_reads::cpu1.inst    130996551                       # Number of read requests responded to by this memory
system.ruby.phys_mem.num_reads::cpu1.data     42342135                       # Number of read requests responded to by this memory
system.ruby.phys_mem.num_reads::cpu2.CUs0.ComputeUnit        53760                       # Number of read requests responded to by this memory
system.ruby.phys_mem.num_reads::cpu2.CUs1.ComputeUnit        53760                       # Number of read requests responded to by this memory
system.ruby.phys_mem.num_reads::cpu2.CUs2.ComputeUnit        53760                       # Number of read requests responded to by this memory
system.ruby.phys_mem.num_reads::cpu2.CUs3.ComputeUnit        53760                       # Number of read requests responded to by this memory
system.ruby.phys_mem.num_reads::total       290905372                       # Number of read requests responded to by this memory
system.ruby.phys_mem.num_writes::cpu0.workload.drivers.device.hsapp            3                       # Number of write requests responded to by this memory
system.ruby.phys_mem.num_writes::cpu0.workload.drivers.device            1                       # Number of write requests responded to by this memory
system.ruby.phys_mem.num_writes::cpu0.data     10170117                       # Number of write requests responded to by this memory
system.ruby.phys_mem.num_writes::cpu1.data      2582683                       # Number of write requests responded to by this memory
system.ruby.phys_mem.num_writes::cpu2.CUs0.ComputeUnit         1176                       # Number of write requests responded to by this memory
system.ruby.phys_mem.num_writes::cpu2.CUs1.ComputeUnit         1222                       # Number of write requests responded to by this memory
system.ruby.phys_mem.num_writes::cpu2.CUs2.ComputeUnit         1456                       # Number of write requests responded to by this memory
system.ruby.phys_mem.num_writes::cpu2.CUs3.ComputeUnit         1178                       # Number of write requests responded to by this memory
system.ruby.phys_mem.num_writes::total       12757836                       # Number of write requests responded to by this memory
system.ruby.phys_mem.bw_read::cpu0.workload.drivers.device.hsapp         1564                       # Total read bandwidth from this memory (bytes/s)
system.ruby.phys_mem.bw_read::cpu0.workload.drivers.device         2117                       # Total read bandwidth from this memory (bytes/s)
system.ruby.phys_mem.bw_read::cpu0.inst    6362171423                       # Total read bandwidth from this memory (bytes/s)
system.ruby.phys_mem.bw_read::cpu0.data    1056713930                       # Total read bandwidth from this memory (bytes/s)
system.ruby.phys_mem.bw_read::cpu1.inst    8534862860                       # Total read bandwidth from this memory (bytes/s)
system.ruby.phys_mem.bw_read::cpu1.data    2480165849                       # Total read bandwidth from this memory (bytes/s)
system.ruby.phys_mem.bw_read::cpu2.CUs0.ComputeUnit      3277474                       # Total read bandwidth from this memory (bytes/s)
system.ruby.phys_mem.bw_read::cpu2.CUs1.ComputeUnit      3277474                       # Total read bandwidth from this memory (bytes/s)
system.ruby.phys_mem.bw_read::cpu2.CUs2.ComputeUnit      3277474                       # Total read bandwidth from this memory (bytes/s)
system.ruby.phys_mem.bw_read::cpu2.CUs3.ComputeUnit      3277474                       # Total read bandwidth from this memory (bytes/s)
system.ruby.phys_mem.bw_read::total       18447027639                       # Total read bandwidth from this memory (bytes/s)
system.ruby.phys_mem.bw_inst_read::cpu0.inst   6362171423                       # Instruction read bandwidth from this memory (bytes/s)
system.ruby.phys_mem.bw_inst_read::cpu1.inst   8534862860                       # Instruction read bandwidth from this memory (bytes/s)
system.ruby.phys_mem.bw_inst_read::cpu2.CUs0.ComputeUnit      1601208                       # Instruction read bandwidth from this memory (bytes/s)
system.ruby.phys_mem.bw_inst_read::cpu2.CUs1.ComputeUnit      1601208                       # Instruction read bandwidth from this memory (bytes/s)
system.ruby.phys_mem.bw_inst_read::cpu2.CUs2.ComputeUnit      1601208                       # Instruction read bandwidth from this memory (bytes/s)
system.ruby.phys_mem.bw_inst_read::cpu2.CUs3.ComputeUnit      1601208                       # Instruction read bandwidth from this memory (bytes/s)
system.ruby.phys_mem.bw_inst_read::total  14903439117                       # Instruction read bandwidth from this memory (bytes/s)
system.ruby.phys_mem.bw_write::cpu0.workload.drivers.device.hsapp          195                       # Write bandwidth from this memory (bytes/s)
system.ruby.phys_mem.bw_write::cpu0.workload.drivers.device           65                       # Write bandwidth from this memory (bytes/s)
system.ruby.phys_mem.bw_write::cpu0.data    575160991                       # Write bandwidth from this memory (bytes/s)
system.ruby.phys_mem.bw_write::cpu1.data    168254942                       # Write bandwidth from this memory (bytes/s)
system.ruby.phys_mem.bw_write::cpu2.CUs0.ComputeUnit        38310                       # Write bandwidth from this memory (bytes/s)
system.ruby.phys_mem.bw_write::cpu2.CUs1.ComputeUnit        39809                       # Write bandwidth from this memory (bytes/s)
system.ruby.phys_mem.bw_write::cpu2.CUs2.ComputeUnit        47432                       # Write bandwidth from this memory (bytes/s)
system.ruby.phys_mem.bw_write::cpu2.CUs3.ComputeUnit        38375                       # Write bandwidth from this memory (bytes/s)
system.ruby.phys_mem.bw_write::total        743580120                       # Write bandwidth from this memory (bytes/s)
system.ruby.phys_mem.bw_total::cpu0.workload.drivers.device.hsapp         1759                       # Total bandwidth to/from this memory (bytes/s)
system.ruby.phys_mem.bw_total::cpu0.workload.drivers.device         2183                       # Total bandwidth to/from this memory (bytes/s)
system.ruby.phys_mem.bw_total::cpu0.inst   6362171423                       # Total bandwidth to/from this memory (bytes/s)
system.ruby.phys_mem.bw_total::cpu0.data   1631874921                       # Total bandwidth to/from this memory (bytes/s)
system.ruby.phys_mem.bw_total::cpu1.inst   8534862860                       # Total bandwidth to/from this memory (bytes/s)
system.ruby.phys_mem.bw_total::cpu1.data   2648420791                       # Total bandwidth to/from this memory (bytes/s)
system.ruby.phys_mem.bw_total::cpu2.CUs0.ComputeUnit      3315784                       # Total bandwidth to/from this memory (bytes/s)
system.ruby.phys_mem.bw_total::cpu2.CUs1.ComputeUnit      3317282                       # Total bandwidth to/from this memory (bytes/s)
system.ruby.phys_mem.bw_total::cpu2.CUs2.ComputeUnit      3324905                       # Total bandwidth to/from this memory (bytes/s)
system.ruby.phys_mem.bw_total::cpu2.CUs3.ComputeUnit      3315849                       # Total bandwidth to/from this memory (bytes/s)
system.ruby.phys_mem.bw_total::total      19190607758                       # Total bandwidth to/from this memory (bytes/s)
system.pwrStateResidencyTicks::UNDEFINED 122787258000                       # Cumulative time (in ticks) in various power states
system.cpu0.clk_domain.voltage_domain.voltage            1                       # Voltage in Volts
system.cpu0.clk_domain.clock                      500                       # Clock period in ticks
system.cpu0.dtb.walker.pwrStateResidencyTicks::UNDEFINED 122787258000                       # Cumulative time (in ticks) in various power states
system.cpu0.dtb.rdAccesses                   19702440                       # TLB accesses on read requests
system.cpu0.dtb.wrAccesses                   10170120                       # TLB accesses on write requests
system.cpu0.dtb.rdMisses                       125069                       # TLB misses on read requests
system.cpu0.dtb.wrMisses                         8032                       # TLB misses on write requests
system.cpu0.apic_clk_domain.clock                8000                       # Clock period in ticks
system.cpu0.interrupts.pwrStateResidencyTicks::UNDEFINED 122787258000                       # Cumulative time (in ticks) in various power states
system.cpu0.itb.walker.pwrStateResidencyTicks::UNDEFINED 122787258000                       # Cumulative time (in ticks) in various power states
system.cpu0.itb.rdAccesses                          0                       # TLB accesses on read requests
system.cpu0.itb.wrAccesses                   97649199                       # TLB accesses on write requests
system.cpu0.itb.rdMisses                            0                       # TLB misses on read requests
system.cpu0.itb.wrMisses                         3071                       # TLB misses on write requests
system.cpu0.workload.drivers.device.dispatcher.num_kernel_launched            1                       # number of kernel launched
system.cpu0.workload.drivers.device.dispatcher.cycles_wait_dispatch          961                       # number of cycles with outstanding wavefronts that are waiting to be dispatched
system.cpu0.workload.drivers.device.hsapp.pwrStateResidencyTicks::UNDEFINED 122787258000                       # Cumulative time (in ticks) in various power states
system.cpu0.workload.drivers.device.pwrStateResidencyTicks::UNDEFINED 122787258000                       # Cumulative time (in ticks) in various power states
system.cpu0.workload.numSyscalls               181322                       # Number of system calls
system.cpu0.numPwrStateTransitions                  2                       # Number of power state transitions
system.cpu0.pwrStateClkGateDist::samples            1                       # Distribution of time spent in the clock gated state
system.cpu0.pwrStateClkGateDist::mean        14446000                       # Distribution of time spent in the clock gated state
system.cpu0.pwrStateClkGateDist::1000-5e+10            1    100.00%    100.00% # Distribution of time spent in the clock gated state
system.cpu0.pwrStateClkGateDist::min_value     14446000                       # Distribution of time spent in the clock gated state
system.cpu0.pwrStateClkGateDist::max_value     14446000                       # Distribution of time spent in the clock gated state
system.cpu0.pwrStateClkGateDist::total              1                       # Distribution of time spent in the clock gated state
system.cpu0.pwrStateResidencyTicks::ON   122772812000                       # Cumulative time (in ticks) in various power states
system.cpu0.pwrStateResidencyTicks::CLK_GATED     14446000                       # Cumulative time (in ticks) in various power states
system.cpu0.numCycles                       245574516                       # number of cpu cycles simulated
system.cpu0.numWorkItemsStarted                     0                       # number of work items this cpu started
system.cpu0.numWorkItemsCompleted                   0                       # number of work items this cpu completed
system.cpu0.committedInsts                   72388779                       # Number of instructions committed
system.cpu0.committedOps                    142290688                       # Number of ops (including micro ops) committed
system.cpu0.num_int_alu_accesses            137944608                       # Number of integer alu accesses
system.cpu0.num_fp_alu_accesses               6894444                       # Number of float alu accesses
system.cpu0.num_vec_alu_accesses                    0                       # Number of vector alu accesses
system.cpu0.num_func_calls                    2253004                       # number of times a function call or return occured
system.cpu0.num_conditional_control_insts     13818612                       # number of instructions that are conditional controls
system.cpu0.num_int_insts                   137944608                       # number of integer instructions
system.cpu0.num_fp_insts                      6894444                       # number of float instructions
system.cpu0.num_vec_insts                           0                       # number of vector instructions
system.cpu0.num_int_register_reads          265586740                       # number of times the integer registers were read
system.cpu0.num_int_register_writes         108521903                       # number of times the integer registers were written
system.cpu0.num_fp_register_reads             9950524                       # number of times the floating registers were read
system.cpu0.num_fp_register_writes            4883649                       # number of times the floating registers were written
system.cpu0.num_vec_register_reads                  0                       # number of times the vector registers were read
system.cpu0.num_vec_register_writes                 0                       # number of times the vector registers were written
system.cpu0.num_cc_register_reads            85414626                       # number of times the CC registers were read
system.cpu0.num_cc_register_writes           43519246                       # number of times the CC registers were written
system.cpu0.num_mem_refs                     29868596                       # number of memory refs
system.cpu0.num_load_insts                   19698670                       # Number of load instructions
system.cpu0.num_store_insts                  10169926                       # Number of store instructions
system.cpu0.num_idle_cycles              28892.000000                       # Number of idle cycles
system.cpu0.num_busy_cycles              245545624.000000                       # Number of busy cycles
system.cpu0.not_idle_fraction                0.999882                       # Percentage of non-idle cycles
system.cpu0.idle_fraction                    0.000118                       # Percentage of idle cycles
system.cpu0.Branches                         18234148                       # Number of branches fetched
system.cpu0.op_class::No_OpClass               395368      0.28%      0.28% # Class of executed instruction
system.cpu0.op_class::IntAlu                107372339     75.46%     75.74% # Class of executed instruction
system.cpu0.op_class::IntMult                  513392      0.36%     76.10% # Class of executed instruction
system.cpu0.op_class::IntDiv                   134312      0.09%     76.19% # Class of executed instruction
system.cpu0.op_class::FloatAdd                  40713      0.03%     76.22% # Class of executed instruction
system.cpu0.op_class::FloatCmp                      7      0.00%     76.22% # Class of executed instruction
system.cpu0.op_class::FloatCvt                   8400      0.01%     76.23% # Class of executed instruction
system.cpu0.op_class::FloatMult                     8      0.00%     76.23% # Class of executed instruction
system.cpu0.op_class::FloatMultAcc                  0      0.00%     76.23% # Class of executed instruction
system.cpu0.op_class::FloatDiv                      7      0.00%     76.23% # Class of executed instruction
system.cpu0.op_class::FloatMisc                     0      0.00%     76.23% # Class of executed instruction
system.cpu0.op_class::FloatSqrt                     0      0.00%     76.23% # Class of executed instruction
system.cpu0.op_class::SimdAdd                   53364      0.04%     76.26% # Class of executed instruction
system.cpu0.op_class::SimdAddAcc                    0      0.00%     76.26% # Class of executed instruction
system.cpu0.op_class::SimdAlu                 1155785      0.81%     77.08% # Class of executed instruction
system.cpu0.op_class::SimdCmp                    1226      0.00%     77.08% # Class of executed instruction
system.cpu0.op_class::SimdCvt                  185894      0.13%     77.21% # Class of executed instruction
system.cpu0.op_class::SimdMisc                 905897      0.64%     77.85% # Class of executed instruction
system.cpu0.op_class::SimdMult                      0      0.00%     77.85% # Class of executed instruction
system.cpu0.op_class::SimdMultAcc                   0      0.00%     77.85% # Class of executed instruction
system.cpu0.op_class::SimdShift                 33489      0.02%     77.87% # Class of executed instruction
system.cpu0.op_class::SimdShiftAcc                  0      0.00%     77.87% # Class of executed instruction
system.cpu0.op_class::SimdSqrt                      0      0.00%     77.87% # Class of executed instruction
system.cpu0.op_class::SimdFloatAdd             180202      0.13%     78.00% # Class of executed instruction
system.cpu0.op_class::SimdFloatAlu                  0      0.00%     78.00% # Class of executed instruction
system.cpu0.op_class::SimdFloatCmp                  0      0.00%     78.00% # Class of executed instruction
system.cpu0.op_class::SimdFloatCvt            1081267      0.76%     78.76% # Class of executed instruction
system.cpu0.op_class::SimdFloatDiv                  6      0.00%     78.76% # Class of executed instruction
system.cpu0.op_class::SimdFloatMisc                 0      0.00%     78.76% # Class of executed instruction
system.cpu0.op_class::SimdFloatMult            360416      0.25%     79.01% # Class of executed instruction
system.cpu0.op_class::SimdFloatMultAcc              0      0.00%     79.01% # Class of executed instruction
system.cpu0.op_class::SimdFloatSqrt                 0      0.00%     79.01% # Class of executed instruction
system.cpu0.op_class::MemRead                18361683     12.90%     91.91% # Class of executed instruction
system.cpu0.op_class::MemWrite                9019189      6.34%     98.25% # Class of executed instruction
system.cpu0.op_class::FloatMemRead            1336987      0.94%     99.19% # Class of executed instruction
system.cpu0.op_class::FloatMemWrite           1150737      0.81%    100.00% # Class of executed instruction
system.cpu0.op_class::IprAccess                     0      0.00%    100.00% # Class of executed instruction
system.cpu0.op_class::InstPrefetch                  0      0.00%    100.00% # Class of executed instruction
system.cpu0.op_class::total                 142290688                       # Class of executed instruction
system.cpu1.clk_domain.voltage_domain.voltage            1                       # Voltage in Volts
system.cpu1.clk_domain.clock                      500                       # Clock period in ticks
system.cpu1.dtb.walker.pwrStateResidencyTicks::UNDEFINED 122787258000                       # Cumulative time (in ticks) in various power states
system.cpu1.dtb.rdAccesses                   42342135                       # TLB accesses on read requests
system.cpu1.dtb.wrAccesses                    2582683                       # TLB accesses on write requests
system.cpu1.dtb.rdMisses                          208                       # TLB misses on read requests
system.cpu1.dtb.wrMisses                            7                       # TLB misses on write requests
system.cpu1.apic_clk_domain.clock                8000                       # Clock period in ticks
system.cpu1.interrupts.pwrStateResidencyTicks::UNDEFINED 122787258000                       # Cumulative time (in ticks) in various power states
system.cpu1.itb.walker.pwrStateResidencyTicks::UNDEFINED 122787258000                       # Cumulative time (in ticks) in various power states
system.cpu1.itb.rdAccesses                          0                       # TLB accesses on read requests
system.cpu1.itb.wrAccesses                  130996551                       # TLB accesses on write requests
system.cpu1.itb.rdMisses                            0                       # TLB misses on read requests
system.cpu1.itb.wrMisses                          127                       # TLB misses on write requests
system.cpu1.pwrStateResidencyTicks::ON   122787258000                       # Cumulative time (in ticks) in various power states
system.cpu1.numCycles                       245126278                       # number of cpu cycles simulated
system.cpu1.numWorkItemsStarted                     0                       # number of work items this cpu started
system.cpu1.numWorkItemsCompleted                   0                       # number of work items this cpu completed
system.cpu1.committedInsts                   97521082                       # Number of instructions committed
system.cpu1.committedOps                    182869254                       # Number of ops (including micro ops) committed
system.cpu1.num_int_alu_accesses            178506276                       # Number of integer alu accesses
system.cpu1.num_fp_alu_accesses               7271062                       # Number of float alu accesses
system.cpu1.num_vec_alu_accesses                    0                       # Number of vector alu accesses
system.cpu1.num_func_calls                    5161017                       # number of times a function call or return occured
system.cpu1.num_conditional_control_insts     20971671                       # number of instructions that are conditional controls
system.cpu1.num_int_insts                   178506276                       # number of integer instructions
system.cpu1.num_fp_insts                      7271062                       # number of float instructions
system.cpu1.num_vec_insts                           0                       # number of vector instructions
system.cpu1.num_int_register_reads          344183674                       # number of times the integer registers were read
system.cpu1.num_int_register_writes         144302556                       # number of times the integer registers were written
system.cpu1.num_fp_register_reads            10906628                       # number of times the floating registers were read
system.cpu1.num_fp_register_writes            6543700                       # number of times the floating registers were written
system.cpu1.num_vec_register_reads                  0                       # number of times the vector registers were read
system.cpu1.num_vec_register_writes                 0                       # number of times the vector registers were written
system.cpu1.num_cc_register_reads           150513376                       # number of times the CC registers were read
system.cpu1.num_cc_register_writes           60338036                       # number of times the CC registers were written
system.cpu1.num_mem_refs                     44924818                       # number of memory refs
system.cpu1.num_load_insts                   42342135                       # Number of load instructions
system.cpu1.num_store_insts                   2582683                       # Number of store instructions
system.cpu1.num_idle_cycles              69384771.982464                       # Number of idle cycles
system.cpu1.num_busy_cycles              175741506.017536                       # Number of busy cycles
system.cpu1.not_idle_fraction                0.716943                       # Percentage of non-idle cycles
system.cpu1.idle_fraction                    0.283057                       # Percentage of idle cycles
system.cpu1.Branches                         28713189                       # Number of branches fetched
system.cpu1.op_class::No_OpClass                  399      0.00%      0.00% # Class of executed instruction
system.cpu1.op_class::IntAlu                132854335     72.65%     72.65% # Class of executed instruction
system.cpu1.op_class::IntMult                       0      0.00%     72.65% # Class of executed instruction
system.cpu1.op_class::IntDiv                       86      0.00%     72.65% # Class of executed instruction
system.cpu1.op_class::FloatAdd                     41      0.00%     72.65% # Class of executed instruction
system.cpu1.op_class::FloatCmp                      0      0.00%     72.65% # Class of executed instruction
system.cpu1.op_class::FloatCvt                     80      0.00%     72.65% # Class of executed instruction
system.cpu1.op_class::FloatMult                     0      0.00%     72.65% # Class of executed instruction
system.cpu1.op_class::FloatMultAcc                  0      0.00%     72.65% # Class of executed instruction
system.cpu1.op_class::FloatDiv                      0      0.00%     72.65% # Class of executed instruction
system.cpu1.op_class::FloatMisc                     0      0.00%     72.65% # Class of executed instruction
system.cpu1.op_class::FloatSqrt                     0      0.00%     72.65% # Class of executed instruction
system.cpu1.op_class::SimdAdd                     248      0.00%     72.65% # Class of executed instruction
system.cpu1.op_class::SimdAddAcc                    0      0.00%     72.65% # Class of executed instruction
system.cpu1.op_class::SimdAlu                 1454039      0.80%     73.45% # Class of executed instruction
system.cpu1.op_class::SimdCmp                       0      0.00%     73.45% # Class of executed instruction
system.cpu1.op_class::SimdCvt                     496      0.00%     73.45% # Class of executed instruction
system.cpu1.op_class::SimdMisc                 727126      0.40%     73.84% # Class of executed instruction
system.cpu1.op_class::SimdMult                      0      0.00%     73.84% # Class of executed instruction
system.cpu1.op_class::SimdMultAcc                   0      0.00%     73.84% # Class of executed instruction
system.cpu1.op_class::SimdShift                    94      0.00%     73.84% # Class of executed instruction
system.cpu1.op_class::SimdShiftAcc                  0      0.00%     73.84% # Class of executed instruction
system.cpu1.op_class::SimdSqrt                      0      0.00%     73.84% # Class of executed instruction
system.cpu1.op_class::SimdFloatAdd             726870      0.40%     74.24% # Class of executed instruction
system.cpu1.op_class::SimdFloatAlu                  0      0.00%     74.24% # Class of executed instruction
system.cpu1.op_class::SimdFloatCmp                  0      0.00%     74.24% # Class of executed instruction
system.cpu1.op_class::SimdFloatCvt            1453744      0.79%     75.04% # Class of executed instruction
system.cpu1.op_class::SimdFloatDiv                  4      0.00%     75.04% # Class of executed instruction
system.cpu1.op_class::SimdFloatMisc                 0      0.00%     75.04% # Class of executed instruction
system.cpu1.op_class::SimdFloatMult            726874      0.40%     75.43% # Class of executed instruction
system.cpu1.op_class::SimdFloatMultAcc              0      0.00%     75.43% # Class of executed instruction
system.cpu1.op_class::SimdFloatSqrt                 0      0.00%     75.43% # Class of executed instruction
system.cpu1.op_class::MemRead                40160869     21.96%     97.39% # Class of executed instruction
system.cpu1.op_class::MemWrite                2582515      1.41%     98.81% # Class of executed instruction
system.cpu1.op_class::FloatMemRead            2181266      1.19%    100.00% # Class of executed instruction
system.cpu1.op_class::FloatMemWrite               168      0.00%    100.00% # Class of executed instruction
system.cpu1.op_class::IprAccess                     0      0.00%    100.00% # Class of executed instruction
system.cpu1.op_class::InstPrefetch                  0      0.00%    100.00% # Class of executed instruction
system.cpu1.op_class::total                 182869254                       # Class of executed instruction
system.cpu2.clk_domain.voltage_domain.voltage            1                       # Voltage in Volts
system.cpu2.clk_domain.clock                     1000                       # Clock period in ticks
system.cpu2.CUs0.localDataStore.pwrStateResidencyTicks::UNDEFINED 122787258000                       # Cumulative time (in ticks) in various power states
system.cpu2.CUs0.scalar_register_file0.register_reads         7800                       # Total number of DWORDs read from register file
system.cpu2.CUs0.scalar_register_file0.register_writes         7930                       # Total number of DWORDS written to register file
system.cpu2.CUs0.scalar_register_file0.sram_reads            0                       # Total number of register file bank SRAM activations for reads
system.cpu2.CUs0.scalar_register_file0.sram_writes            0                       # Total number of register file bank SRAM activations for writes
system.cpu2.CUs0.scalar_register_file1.register_reads         7800                       # Total number of DWORDs read from register file
system.cpu2.CUs0.scalar_register_file1.register_writes         7930                       # Total number of DWORDS written to register file
system.cpu2.CUs0.scalar_register_file1.sram_reads            0                       # Total number of register file bank SRAM activations for reads
system.cpu2.CUs0.scalar_register_file1.sram_writes            0                       # Total number of register file bank SRAM activations for writes
system.cpu2.CUs0.scalar_register_file2.register_reads         7800                       # Total number of DWORDs read from register file
system.cpu2.CUs0.scalar_register_file2.register_writes         7930                       # Total number of DWORDS written to register file
system.cpu2.CUs0.scalar_register_file2.sram_reads            0                       # Total number of register file bank SRAM activations for reads
system.cpu2.CUs0.scalar_register_file2.sram_writes            0                       # Total number of register file bank SRAM activations for writes
system.cpu2.CUs0.scalar_register_file3.register_reads         7320                       # Total number of DWORDs read from register file
system.cpu2.CUs0.scalar_register_file3.register_writes         7442                       # Total number of DWORDS written to register file
system.cpu2.CUs0.scalar_register_file3.sram_reads            0                       # Total number of register file bank SRAM activations for reads
system.cpu2.CUs0.scalar_register_file3.sram_writes            0                       # Total number of register file bank SRAM activations for writes
system.cpu2.CUs0.vector_register_file0.register_reads       496943                       # Total number of DWORDs read from register file
system.cpu2.CUs0.vector_register_file0.register_writes       333838                       # Total number of DWORDS written to register file
system.cpu2.CUs0.vector_register_file0.sram_reads       125333                       # Total number of register file bank SRAM activations for reads
system.cpu2.CUs0.vector_register_file0.sram_writes        84058                       # Total number of register file bank SRAM activations for writes
system.cpu2.CUs0.vector_register_file1.register_reads       496349                       # Total number of DWORDs read from register file
system.cpu2.CUs0.vector_register_file1.register_writes       333514                       # Total number of DWORDS written to register file
system.cpu2.CUs0.vector_register_file1.sram_reads       125058                       # Total number of register file bank SRAM activations for reads
system.cpu2.CUs0.vector_register_file1.sram_writes        83908                       # Total number of register file bank SRAM activations for writes
system.cpu2.CUs0.vector_register_file2.register_reads       496855                       # Total number of DWORDs read from register file
system.cpu2.CUs0.vector_register_file2.register_writes       333790                       # Total number of DWORDS written to register file
system.cpu2.CUs0.vector_register_file2.sram_reads       125080                       # Total number of register file bank SRAM activations for reads
system.cpu2.CUs0.vector_register_file2.sram_writes        83920                       # Total number of register file bank SRAM activations for writes
system.cpu2.CUs0.vector_register_file3.register_reads       466017                       # Total number of DWORDs read from register file
system.cpu2.CUs0.vector_register_file3.register_writes       313106                       # Total number of DWORDS written to register file
system.cpu2.CUs0.vector_register_file3.sram_reads       117354                       # Total number of register file bank SRAM activations for reads
system.cpu2.CUs0.vector_register_file3.sram_writes        78740                       # Total number of register file bank SRAM activations for writes
system.cpu2.CUs0.wavefronts00.num_instr_executed         2227                       # number of instructions executed by this WF slot
system.cpu2.CUs0.wavefronts00.sch_cycles        23848                       # number of cycles spent in schedule stage
system.cpu2.CUs0.wavefronts00.sch_stalls        21621                       # number of cycles WF is stalled in SCH stage
system.cpu2.CUs0.wavefronts00.sch_rf_access_stalls            0                       # number of cycles wave selected in SCH but RF denied adding instruction
system.cpu2.CUs0.wavefronts00.sch_resource_stalls        17443                       # number of cycles stalled in sch by resource not available
system.cpu2.CUs0.wavefronts00.sch_opd_nrdy_stalls            0                       # number of cycles stalled in sch waiting for RF reads to complete
system.cpu2.CUs0.wavefronts00.sch_lds_arb_stalls            0                       # number of cycles wave stalled due to LDS-VRF arbitration
system.cpu2.CUs0.wavefronts00.timesBlockedDueWAXDependencies            0                       # number of times the wf's instructions are blocked due to WAW or WAR dependencies
system.cpu2.CUs0.wavefronts00.timesBlockedDueRAWDependencies         4407                       # number of times the wf's instructions are blocked due to RAW dependencies
system.cpu2.CUs0.wavefronts00.vec_raw_distance::samples         2210                       # Count of RAW distance in dynamic instructions for this WF
system.cpu2.CUs0.wavefronts00.vec_raw_distance::mean    39.538462                       # Count of RAW distance in dynamic instructions for this WF
system.cpu2.CUs0.wavefronts00.vec_raw_distance::stdev   223.066173                       # Count of RAW distance in dynamic instructions for this WF
system.cpu2.CUs0.wavefronts00.vec_raw_distance::underflows            0      0.00%      0.00% # Count of RAW distance in dynamic instructions for this WF
system.cpu2.CUs0.wavefronts00.vec_raw_distance::0            0      0.00%      0.00% # Count of RAW distance in dynamic instructions for this WF
system.cpu2.CUs0.wavefronts00.vec_raw_distance::1          493     22.31%     22.31% # Count of RAW distance in dynamic instructions for this WF
system.cpu2.CUs0.wavefronts00.vec_raw_distance::2          425     19.23%     41.54% # Count of RAW distance in dynamic instructions for this WF
system.cpu2.CUs0.wavefronts00.vec_raw_distance::3          289     13.08%     54.62% # Count of RAW distance in dynamic instructions for this WF
system.cpu2.CUs0.wavefronts00.vec_raw_distance::4          221     10.00%     64.62% # Count of RAW distance in dynamic instructions for this WF
system.cpu2.CUs0.wavefronts00.vec_raw_distance::5          102      4.62%     69.23% # Count of RAW distance in dynamic instructions for this WF
system.cpu2.CUs0.wavefronts00.vec_raw_distance::6          102      4.62%     73.85% # Count of RAW distance in dynamic instructions for this WF
system.cpu2.CUs0.wavefronts00.vec_raw_distance::7           51      2.31%     76.15% # Count of RAW distance in dynamic instructions for this WF
system.cpu2.CUs0.wavefronts00.vec_raw_distance::8           68      3.08%     79.23% # Count of RAW distance in dynamic instructions for this WF
system.cpu2.CUs0.wavefronts00.vec_raw_distance::9           68      3.08%     82.31% # Count of RAW distance in dynamic instructions for this WF
system.cpu2.CUs0.wavefronts00.vec_raw_distance::10           34      1.54%     83.85% # Count of RAW distance in dynamic instructions for this WF
system.cpu2.CUs0.wavefronts00.vec_raw_distance::11           17      0.77%     84.62% # Count of RAW distance in dynamic instructions for this WF
system.cpu2.CUs0.wavefronts00.vec_raw_distance::12           34      1.54%     86.15% # Count of RAW distance in dynamic instructions for this WF
system.cpu2.CUs0.wavefronts00.vec_raw_distance::13           51      2.31%     88.46% # Count of RAW distance in dynamic instructions for this WF
system.cpu2.CUs0.wavefronts00.vec_raw_distance::14            0      0.00%     88.46% # Count of RAW distance in dynamic instructions for this WF
system.cpu2.CUs0.wavefronts00.vec_raw_distance::15            0      0.00%     88.46% # Count of RAW distance in dynamic instructions for this WF
system.cpu2.CUs0.wavefronts00.vec_raw_distance::16           17      0.77%     89.23% # Count of RAW distance in dynamic instructions for this WF
system.cpu2.CUs0.wavefronts00.vec_raw_distance::17           34      1.54%     90.77% # Count of RAW distance in dynamic instructions for this WF
system.cpu2.CUs0.wavefronts00.vec_raw_distance::18            0      0.00%     90.77% # Count of RAW distance in dynamic instructions for this WF
system.cpu2.CUs0.wavefronts00.vec_raw_distance::19           34      1.54%     92.31% # Count of RAW distance in dynamic instructions for this WF
system.cpu2.CUs0.wavefronts00.vec_raw_distance::20           17      0.77%     93.08% # Count of RAW distance in dynamic instructions for this WF
system.cpu2.CUs0.wavefronts00.vec_raw_distance::overflows          153      6.92%    100.00% # Count of RAW distance in dynamic instructions for this WF
system.cpu2.CUs0.wavefronts00.vec_raw_distance::min_value            1                       # Count of RAW distance in dynamic instructions for this WF
system.cpu2.CUs0.wavefronts00.vec_raw_distance::max_value         2177                       # Count of RAW distance in dynamic instructions for this WF
system.cpu2.CUs0.wavefronts00.vec_raw_distance::total         2210                       # Count of RAW distance in dynamic instructions for this WF
system.cpu2.CUs0.wavefronts00.vec_reads_per_write::samples         1496                       # Count of Vector reads per write for this WF
system.cpu2.CUs0.wavefronts00.vec_reads_per_write::mean     1.477273                       # Count of Vector reads per write for this WF
system.cpu2.CUs0.wavefronts00.vec_reads_per_write::stdev     0.879049                       # Count of Vector reads per write for this WF
system.cpu2.CUs0.wavefronts00.vec_reads_per_write::underflows            0      0.00%      0.00% # Count of Vector reads per write for this WF
system.cpu2.CUs0.wavefronts00.vec_reads_per_write::0            0      0.00%      0.00% # Count of Vector reads per write for this WF
system.cpu2.CUs0.wavefronts00.vec_reads_per_write::1         1037     69.32%     69.32% # Count of Vector reads per write for this WF
system.cpu2.CUs0.wavefronts00.vec_reads_per_write::2          306     20.45%     89.77% # Count of Vector reads per write for this WF
system.cpu2.CUs0.wavefronts00.vec_reads_per_write::3           85      5.68%     95.45% # Count of Vector reads per write for this WF
system.cpu2.CUs0.wavefronts00.vec_reads_per_write::4           34      2.27%     97.73% # Count of Vector reads per write for this WF
system.cpu2.CUs0.wavefronts00.vec_reads_per_write::overflows           34      2.27%    100.00% # Count of Vector reads per write for this WF
system.cpu2.CUs0.wavefronts00.vec_reads_per_write::min_value            1                       # Count of Vector reads per write for this WF
system.cpu2.CUs0.wavefronts00.vec_reads_per_write::max_value            5                       # Count of Vector reads per write for this WF
system.cpu2.CUs0.wavefronts00.vec_reads_per_write::total         1496                       # Count of Vector reads per write for this WF
system.cpu2.CUs0.wavefronts01.num_instr_executed         2096                       # number of instructions executed by this WF slot
system.cpu2.CUs0.wavefronts01.sch_cycles        20978                       # number of cycles spent in schedule stage
system.cpu2.CUs0.wavefronts01.sch_stalls        18882                       # number of cycles WF is stalled in SCH stage
system.cpu2.CUs0.wavefronts01.sch_rf_access_stalls            0                       # number of cycles wave selected in SCH but RF denied adding instruction
system.cpu2.CUs0.wavefronts01.sch_resource_stalls        15099                       # number of cycles stalled in sch by resource not available
system.cpu2.CUs0.wavefronts01.sch_opd_nrdy_stalls            0                       # number of cycles stalled in sch waiting for RF reads to complete
system.cpu2.CUs0.wavefronts01.sch_lds_arb_stalls            0                       # number of cycles wave stalled due to LDS-VRF arbitration
system.cpu2.CUs0.wavefronts01.timesBlockedDueWAXDependencies            0                       # number of times the wf's instructions are blocked due to WAW or WAR dependencies
system.cpu2.CUs0.wavefronts01.timesBlockedDueRAWDependencies         4166                       # number of times the wf's instructions are blocked due to RAW dependencies
system.cpu2.CUs0.wavefronts01.vec_raw_distance::samples         2080                       # Count of RAW distance in dynamic instructions for this WF
system.cpu2.CUs0.wavefronts01.vec_raw_distance::mean    37.523077                       # Count of RAW distance in dynamic instructions for this WF
system.cpu2.CUs0.wavefronts01.vec_raw_distance::stdev   209.952328                       # Count of RAW distance in dynamic instructions for this WF
system.cpu2.CUs0.wavefronts01.vec_raw_distance::underflows            0      0.00%      0.00% # Count of RAW distance in dynamic instructions for this WF
system.cpu2.CUs0.wavefronts01.vec_raw_distance::0            0      0.00%      0.00% # Count of RAW distance in dynamic instructions for this WF
system.cpu2.CUs0.wavefronts01.vec_raw_distance::1          464     22.31%     22.31% # Count of RAW distance in dynamic instructions for this WF
system.cpu2.CUs0.wavefronts01.vec_raw_distance::2          400     19.23%     41.54% # Count of RAW distance in dynamic instructions for this WF
system.cpu2.CUs0.wavefronts01.vec_raw_distance::3          272     13.08%     54.62% # Count of RAW distance in dynamic instructions for this WF
system.cpu2.CUs0.wavefronts01.vec_raw_distance::4          208     10.00%     64.62% # Count of RAW distance in dynamic instructions for this WF
[...]
system.ruby.CorePair_Controller.L1I_Repl       114254      0.00%      0.00%
system.ruby.CorePair_Controller.L1D0_Repl      2524551      0.00%      0.00%
system.ruby.CorePair_Controller.L1D1_Repl           18      0.00%      0.00%
system.ruby.CorePair_Controller.L2_Repl        257459      0.00%      0.00%
system.ruby.CorePair_Controller.L2_to_L1D0      2237634      0.00%      0.00%
system.ruby.CorePair_Controller.L2_to_L1D1          349      0.00%      0.00%
system.ruby.CorePair_Controller.L2_to_L1I       105696      0.00%      0.00%
system.ruby.CorePair_Controller.PrbInvData         4154      0.00%      0.00%
system.ruby.CorePair_Controller.PrbShrData         4431      0.00%      0.00%
system.ruby.CorePair_Controller.I.C0_Load_L1miss        69812      0.00%      0.00%
system.ruby.CorePair_Controller.I.C1_Load_L1miss          233      0.00%      0.00%
system.ruby.CorePair_Controller.I.Ifetch0_L1miss        10950      0.00%      0.00%
system.ruby.CorePair_Controller.I.Ifetch1_L1miss          255      0.00%      0.00%
system.ruby.CorePair_Controller.I.C0_Store_L1miss       209524      0.00%      0.00%
system.ruby.CorePair_Controller.I.C1_Store_L1miss           86      0.00%      0.00%
system.ruby.CorePair_Controller.I.PrbInvData         3339      0.00%      0.00%
system.ruby.CorePair_Controller.I.PrbShrData           50      0.00%      0.00%
system.ruby.CorePair_Controller.S.C0_Load_L1miss            4      0.00%      0.00%
system.ruby.CorePair_Controller.S.C0_Load_L1hit            6      0.00%      0.00%
system.ruby.CorePair_Controller.S.Ifetch0_L1hit     97532577      0.00%      0.00%
system.ruby.CorePair_Controller.S.Ifetch1_L1hit    130996256      0.00%      0.00%
system.ruby.CorePair_Controller.S.Ifetch0_L1miss       105656      0.00%      0.00%
system.ruby.CorePair_Controller.S.Ifetch1_L1miss           40      0.00%      0.00%
system.ruby.CorePair_Controller.S.L1I_Repl       114254      0.00%      0.00%
system.ruby.CorePair_Controller.S.L1D0_Repl            4      0.00%      0.00%
system.ruby.CorePair_Controller.S.L2_Repl         7655      0.00%      0.00%
system.ruby.CorePair_Controller.E0.C0_Load_L1miss      2135118      0.00%      0.00%
system.ruby.CorePair_Controller.E0.C0_Load_L1hit      2766840      0.00%      0.00%
system.ruby.CorePair_Controller.E0.C1_Load_L1miss          268      0.00%      0.00%
system.ruby.CorePair_Controller.E0.Ifetch0_L1miss           15      0.00%      0.00%
system.ruby.CorePair_Controller.E0.C0_Store_L1miss          416      0.00%      0.00%
system.ruby.CorePair_Controller.E0.C0_Store_L1hit        10700      0.00%      0.00%
system.ruby.CorePair_Controller.E0.C1_Store_L1miss            1      0.00%      0.00%
system.ruby.CorePair_Controller.E0.L1D0_Repl      2193618      0.00%      0.00%
system.ruby.CorePair_Controller.E0.L2_Repl        55074      0.00%      0.00%
system.ruby.CorePair_Controller.E0.PrbInvData            2      0.00%      0.00%
system.ruby.CorePair_Controller.E1.C0_Load_L1miss           48      0.00%      0.00%
system.ruby.CorePair_Controller.E1.C1_Load_L1miss            2      0.00%      0.00%
system.ruby.CorePair_Controller.E1.C1_Load_L1hit     11563449      0.00%      0.00%
system.ruby.CorePair_Controller.E1.C0_Store_L1miss            5      0.00%      0.00%
system.ruby.CorePair_Controller.E1.C1_Store_L1hit           33      0.00%      0.00%
system.ruby.CorePair_Controller.E1.L1D1_Repl            8      0.00%      0.00%
system.ruby.CorePair_Controller.E1.L2_Repl          121      0.00%      0.00%
system.ruby.CorePair_Controller.Es.C0_Load_L1miss         1899      0.00%      0.00%
system.ruby.CorePair_Controller.Es.C0_Load_L1hit       107817      0.00%      0.00%
system.ruby.CorePair_Controller.Es.C1_Load_L1miss            3      0.00%      0.00%
system.ruby.CorePair_Controller.Es.C1_Load_L1hit      1988654      0.00%      0.00%
system.ruby.CorePair_Controller.Es.C0_Store_L1hit           12      0.00%      0.00%
system.ruby.CorePair_Controller.Es.C1_Store_L1hit            5      0.00%      0.00%
system.ruby.CorePair_Controller.Es.L1D0_Repl         2044      0.00%      0.00%
system.ruby.CorePair_Controller.Es.L1D1_Repl            8      0.00%      0.00%
system.ruby.CorePair_Controller.Es.L2_Repl          156      0.00%      0.00%
system.ruby.CorePair_Controller.O.C0_Store_L1miss            1      0.00%      0.00%
system.ruby.CorePair_Controller.O.L1D0_Repl           16      0.00%      0.00%
system.ruby.CorePair_Controller.O.L2_Repl          278      0.00%      0.00%
system.ruby.CorePair_Controller.O.PrbInvData          813      0.00%      0.00%
system.ruby.CorePair_Controller.O.PrbShrData          264      0.00%      0.00%
system.ruby.CorePair_Controller.Ms.C0_Load_L1miss           73      0.00%      0.00%
system.ruby.CorePair_Controller.Ms.C0_Load_L1hit        17570      0.00%      0.00%
system.ruby.CorePair_Controller.Ms.C1_Load_L1hit      2694351      0.00%      0.00%
system.ruby.CorePair_Controller.Ms.C0_Store_L1hit           37      0.00%      0.00%
system.ruby.CorePair_Controller.Ms.C1_Store_L1hit           31      0.00%      0.00%
system.ruby.CorePair_Controller.Ms.L1D0_Repl           99      0.00%      0.00%
system.ruby.CorePair_Controller.Ms.L2_Repl           29      0.00%      0.00%
system.ruby.CorePair_Controller.M0.C0_Load_L1miss       100459      0.00%      0.00%
system.ruby.CorePair_Controller.M0.C0_Load_L1hit     14092898      0.00%      0.00%
system.ruby.CorePair_Controller.M0.C1_Load_L1miss           76      0.00%      0.00%
system.ruby.CorePair_Controller.M0.C0_Store_L1miss         8244      0.00%      0.00%
system.ruby.CorePair_Controller.M0.C0_Store_L1hit     10351034      0.00%      0.00%
system.ruby.CorePair_Controller.M0.C1_Store_L1miss           12      0.00%      0.00%
system.ruby.CorePair_Controller.M0.L1D0_Repl       328770      0.00%      0.00%
system.ruby.CorePair_Controller.M0.L2_Repl       194041      0.00%      0.00%
system.ruby.CorePair_Controller.M0.PrbShrData         4117      0.00%      0.00%
system.ruby.CorePair_Controller.M1.C0_Load_L1miss           33      0.00%      0.00%
system.ruby.CorePair_Controller.M1.C1_Load_L1hit     26094994      0.00%      0.00%
system.ruby.CorePair_Controller.M1.C0_Store_L1miss            7      0.00%      0.00%
system.ruby.CorePair_Controller.M1.C1_Store_L1hit      2582618      0.00%      0.00%
system.ruby.CorePair_Controller.M1.L1D1_Repl            2      0.00%      0.00%
system.ruby.CorePair_Controller.M1.L2_Repl          105      0.00%      0.00%
system.ruby.CorePair_Controller.I_M0.NB_AckM       209524      0.00%      0.00%
system.ruby.CorePair_Controller.I_M1.NB_AckM           86      0.00%      0.00%
system.ruby.CorePair_Controller.I_E0S.NB_AckE        69812      0.00%      0.00%
system.ruby.CorePair_Controller.I_E1S.NB_AckE          233      0.00%      0.00%
system.ruby.CorePair_Controller.ES_I.C1_Load_L1miss          309      0.00%      0.00%
system.ruby.CorePair_Controller.ES_I.Ifetch1_L1miss          273      0.00%      0.00%
system.ruby.CorePair_Controller.ES_I.NB_AckWB        63006      0.00%      0.00%
system.ruby.CorePair_Controller.MO_I.C1_Load_L1miss          201      0.00%      0.00%
system.ruby.CorePair_Controller.MO_I.NB_AckWB       194453      0.00%      0.00%
system.ruby.CorePair_Controller.S_F0.L2_to_L1D0            4      0.00%      0.00%
system.ruby.CorePair_Controller.Si_F0.L2_to_L1I       105656      0.00%      0.00%
system.ruby.CorePair_Controller.Si_F1.L2_to_L1I           40      0.00%      0.00%
system.ruby.CorePair_Controller.O_M0.NB_AckM            1      0.00%      0.00%
system.ruby.CorePair_Controller.S0.NB_AckS        10965      0.00%      0.00%
system.ruby.CorePair_Controller.S1.NB_AckS          255      0.00%      0.00%
system.ruby.CorePair_Controller.Es_F0.L2_to_L1D0         1899      0.00%      0.00%
system.ruby.CorePair_Controller.Es_F1.L2_to_L1D1            3      0.00%      0.00%
system.ruby.CorePair_Controller.E0_F.L2_to_L1D0      2135118      0.00%      0.00%
system.ruby.CorePair_Controller.E1_F.L2_to_L1D1            2      0.00%      0.00%
system.ruby.CorePair_Controller.E0_Es.L2_to_L1D1          268      0.00%      0.00%
system.ruby.CorePair_Controller.E1_Es.C1_Load_L1hit            2      0.00%      0.00%
system.ruby.CorePair_Controller.E1_Es.L2_to_L1D0           48      0.00%      0.00%
system.ruby.CorePair_Controller.Ms_F0.L2_to_L1D0           73      0.00%      0.00%
system.ruby.CorePair_Controller.M0_F.L2_to_L1D0       100459      0.00%      0.00%
system.ruby.CorePair_Controller.M0_Ms.L2_to_L1D1           76      0.00%      0.00%
system.ruby.CorePair_Controller.M1_Ms.L2_to_L1D0           33      0.00%      0.00%
system.ruby.Directory_Controller.RdBlkS         11221      0.00%      0.00%
system.ruby.Directory_Controller.RdBlkM        209611      0.00%      0.00%
system.ruby.Directory_Controller.RdBlk          74468      0.00%      0.00%
system.ruby.Directory_Controller.WriteThrough         4860      0.00%      0.00%
system.ruby.Directory_Controller.VicDirty       194453      0.00%      0.00%
system.ruby.Directory_Controller.VicClean        63006      0.00%      0.00%
system.ruby.Directory_Controller.CPUData       257459      0.00%      0.00%
system.ruby.Directory_Controller.CPUPrbResp       299473      0.00%      0.00%
system.ruby.Directory_Controller.ProbeAcksComplete       299461      0.00%      0.00%
system.ruby.Directory_Controller.L3Hit          22444      0.00%      0.00%
system.ruby.Directory_Controller.MemData       277013      0.00%      0.00%
system.ruby.Directory_Controller.WBAck           6009      0.00%      0.00%
system.ruby.Directory_Controller.CoreUnblock       295298      0.00%      0.00%
system.ruby.Directory_Controller.UnblockWriteThrough         4150      0.00%      0.00%
system.ruby.Directory_Controller.DmaRead            8      0.00%      0.00%
system.ruby.Directory_Controller.DmaWrite            4      0.00%      0.00%
system.ruby.Directory_Controller.U.RdBlkS        11220      0.00%      0.00%
system.ruby.Directory_Controller.U.RdBlkM       209611      0.00%      0.00%
system.ruby.Directory_Controller.U.RdBlk        74468      0.00%      0.00%
system.ruby.Directory_Controller.U.WriteThrough         4150      0.00%      0.00%
system.ruby.Directory_Controller.U.VicDirty       194453      0.00%      0.00%
system.ruby.Directory_Controller.U.VicClean        63006      0.00%      0.00%
system.ruby.Directory_Controller.U.WBAck         6009      0.00%      0.00%
system.ruby.Directory_Controller.U.DmaRead            8      0.00%      0.00%
system.ruby.Directory_Controller.U.DmaWrite            4      0.00%      0.00%
system.ruby.Directory_Controller.BL.RdBlkS            1      0.00%      0.00%
system.ruby.Directory_Controller.BL.CPUData       257459      0.00%      0.00%
system.ruby.Directory_Controller.BDR_M.MemData            1      0.00%      0.00%
system.ruby.Directory_Controller.BS_M.MemData         7175      0.00%      0.00%
system.ruby.Directory_Controller.BM_M.WriteThrough           82      0.00%      0.00%
system.ruby.Directory_Controller.BM_M.MemData       210436      0.00%      0.00%
system.ruby.Directory_Controller.B_M.MemData        54934      0.00%      0.00%
system.ruby.Directory_Controller.BDR_PM.CPUPrbResp            9      0.00%      0.00%
system.ruby.Directory_Controller.BDR_PM.ProbeAcksComplete            1      0.00%      0.00%
system.ruby.Directory_Controller.BDR_PM.MemData            7      0.00%      0.00%
system.ruby.Directory_Controller.BS_PM.CPUPrbResp         7175      0.00%      0.00%
system.ruby.Directory_Controller.BS_PM.ProbeAcksComplete         7175      0.00%      0.00%
system.ruby.Directory_Controller.BS_PM.L3Hit         4039      0.00%      0.00%
system.ruby.Directory_Controller.BS_PM.MemData            6      0.00%      0.00%
system.ruby.Directory_Controller.BM_PM.WriteThrough          585      0.00%      0.00%
system.ruby.Directory_Controller.BM_PM.CPUPrbResp       210470      0.00%      0.00%
system.ruby.Directory_Controller.BM_PM.ProbeAcksComplete       210436      0.00%      0.00%
system.ruby.Directory_Controller.BM_PM.L3Hit         1121      0.00%      0.00%
system.ruby.Directory_Controller.BM_PM.MemData         2204      0.00%      0.00%
system.ruby.Directory_Controller.B_PM.CPUPrbResp        54945      0.00%      0.00%
system.ruby.Directory_Controller.B_PM.ProbeAcksComplete        54934      0.00%      0.00%
system.ruby.Directory_Controller.B_PM.L3Hit        17284      0.00%      0.00%
system.ruby.Directory_Controller.B_PM.MemData         2250      0.00%      0.00%
system.ruby.Directory_Controller.BDW_P.CPUPrbResp            8      0.00%      0.00%
system.ruby.Directory_Controller.BDW_P.ProbeAcksComplete            4      0.00%      0.00%
system.ruby.Directory_Controller.BDR_Pm.CPUPrbResp            7      0.00%      0.00%
system.ruby.Directory_Controller.BDR_Pm.ProbeAcksComplete            7      0.00%      0.00%
system.ruby.Directory_Controller.BS_Pm.CPUPrbResp         4045      0.00%      0.00%
system.ruby.Directory_Controller.BS_Pm.ProbeAcksComplete         4045      0.00%      0.00%
system.ruby.Directory_Controller.BM_Pm.WriteThrough           41      0.00%      0.00%
system.ruby.Directory_Controller.BM_Pm.CPUPrbResp         3291      0.00%      0.00%
system.ruby.Directory_Controller.BM_Pm.ProbeAcksComplete         3325      0.00%      0.00%
system.ruby.Directory_Controller.B_Pm.CPUPrbResp        19523      0.00%      0.00%
system.ruby.Directory_Controller.B_Pm.ProbeAcksComplete        19534      0.00%      0.00%
system.ruby.Directory_Controller.B.WriteThrough            2      0.00%      0.00%
system.ruby.Directory_Controller.B.CoreUnblock       295298      0.00%      0.00%
system.ruby.Directory_Controller.B.UnblockWriteThrough         4150      0.00%      0.00%
system.ruby.SQC_Controller.Fetch         |       12288     66.67%     66.67% |        6144     33.33%    100.00%
system.ruby.SQC_Controller.Fetch::total         18432                      
system.ruby.SQC_Controller.Data          |          12     85.71%     85.71% |           2     14.29%    100.00%
system.ruby.SQC_Controller.Data::total             14                      
system.ruby.SQC_Controller.I.Fetch       |          12     85.71%     85.71% |           2     14.29%    100.00%
system.ruby.SQC_Controller.I.Fetch::total           14                      
system.ruby.SQC_Controller.I.Data        |          12     85.71%     85.71% |           2     14.29%    100.00%
system.ruby.SQC_Controller.I.Data::total           14                      
system.ruby.SQC_Controller.V.Fetch       |       12276     66.65%     66.65% |        6142     33.35%    100.00%
system.ruby.SQC_Controller.V.Fetch::total        18418                      
system.ruby.TCC_Controller.RdBlk                12164      0.00%      0.00%
system.ruby.TCC_Controller.WrVicBlk              4150      0.00%      0.00%
system.ruby.TCC_Controller.Data                  4423      0.00%      0.00%
system.ruby.TCC_Controller.L2_Repl                390      0.00%      0.00%
system.ruby.TCC_Controller.PrbInv              290888      0.00%      0.00%
system.ruby.TCC_Controller.WBAck                 4150      0.00%      0.00%
system.ruby.TCC_Controller.V.RdBlk               7720      0.00%      0.00%
system.ruby.TCC_Controller.V.WrVicBlk            2072      0.00%      0.00%
system.ruby.TCC_Controller.V.L2_Repl              390      0.00%      0.00%
system.ruby.TCC_Controller.V.WBAck               2072      0.00%      0.00%
system.ruby.TCC_Controller.I.RdBlk               4423      0.00%      0.00%
system.ruby.TCC_Controller.I.WrVicBlk            2078      0.00%      0.00%
system.ruby.TCC_Controller.I.PrbInv            290888      0.00%      0.00%
system.ruby.TCC_Controller.I.WBAck               2078      0.00%      0.00%
system.ruby.TCC_Controller.IV.RdBlk                21      0.00%      0.00%
system.ruby.TCC_Controller.IV.Data               4423      0.00%      0.00%
system.ruby.TCP_Controller.Load          |        4221     24.85%     24.85% |        4314     25.39%     50.24% |        4159     24.48%     74.72% |        4295     25.28%    100.00%
system.ruby.TCP_Controller.Load::total          16989                      
system.ruby.TCP_Controller.StoreThrough  |         960     23.13%     23.13% |        1000     24.10%     47.23% |        1218     29.35%     76.58% |         972     23.42%    100.00%
system.ruby.TCP_Controller.StoreThrough::total         4150                      
system.ruby.TCP_Controller.Evict         |         512     25.00%     25.00% |         512     25.00%     50.00% |         512     25.00%     75.00% |         512     25.00%    100.00%
system.ruby.TCP_Controller.Evict::total          2048                      
system.ruby.TCP_Controller.Repl          |        2284     25.30%     25.30% |        2285     25.32%     50.62% |        2195     24.32%     74.94% |        2262     25.06%    100.00%
system.ruby.TCP_Controller.Repl::total           9026                      
system.ruby.TCP_Controller.TCC_Ack       |        3042     25.04%     25.04% |        3049     25.09%     50.13% |        3037     25.00%     75.13% |        3022     24.87%    100.00%
system.ruby.TCP_Controller.TCC_Ack::total        12150                      
system.ruby.TCP_Controller.TCC_AckWB     |         960     23.13%     23.13% |        1000     24.10%     47.23% |        1218     29.35%     76.58% |         972     23.42%    100.00%
system.ruby.TCP_Controller.TCC_AckWB::total         4150                      
system.ruby.TCP_Controller.I.Load        |        3042     25.04%     25.04% |        3049     25.09%     50.13% |        3037     25.00%     75.13% |        3022     24.87%    100.00%
system.ruby.TCP_Controller.I.Load::total        12150                      
system.ruby.TCP_Controller.I.StoreThrough |         642     22.95%     22.95% |         684     24.45%     47.41% |         815     29.14%     76.55% |         656     23.45%    100.00%
system.ruby.TCP_Controller.I.StoreThrough::total         2797                      
system.ruby.TCP_Controller.I.Evict       |         512     25.00%     25.00% |         512     25.00%     50.00% |         512     25.00%     75.00% |         512     25.00%    100.00%
system.ruby.TCP_Controller.I.Evict::total         2048                      
system.ruby.TCP_Controller.I.TCC_Ack     |        3042     25.04%     25.04% |        3049     25.09%     50.13% |        3037     25.00%     75.13% |        3022     24.87%    100.00%
system.ruby.TCP_Controller.I.TCC_Ack::total        12150                      
system.ruby.TCP_Controller.I.TCC_AckWB   |         958     23.29%     23.29% |         994     24.16%     47.45% |        1204     29.27%     76.71% |         958     23.29%    100.00%
system.ruby.TCP_Controller.I.TCC_AckWB::total         4114                      
system.ruby.TCP_Controller.V.Load        |        1179     24.36%     24.36% |        1265     26.14%     50.51% |        1122     23.19%     73.69% |        1273     26.31%    100.00%
system.ruby.TCP_Controller.V.Load::total         4839                      
system.ruby.TCP_Controller.V.StoreThrough |         318     23.50%     23.50% |         316     23.36%     46.86% |         403     29.79%     76.64% |         316     23.36%    100.00%
system.ruby.TCP_Controller.V.StoreThrough::total         1353                      
system.ruby.TCP_Controller.V.Repl        |        2284     25.30%     25.30% |        2285     25.32%     50.62% |        2195     24.32%     74.94% |        2262     25.06%    100.00%
system.ruby.TCP_Controller.V.Repl::total         9026                      
system.ruby.TCP_Controller.V.TCC_AckWB   |           2      5.56%      5.56% |           6     16.67%     22.22% |          14     38.89%     61.11% |          14     38.89%    100.00%
system.ruby.TCP_Controller.V.TCC_AckWB::total           36                      

---------- End Simulation Statistics   ----------
