
---------- Begin Simulation Statistics ----------
sim_seconds                                  0.136354                       # Number of seconds simulated
sim_ticks                                136353516000                       # Number of ticks simulated
final_tick                               136353516000                       # Number of ticks from beginning of simulation (restored from checkpoints and never reset)
sim_freq                                 1000000000000                       # Frequency of simulated ticks
host_inst_rate                                 302052                       # Simulator instruction rate (inst/s)
host_op_rate                                   573745                       # Simulator op (including micro ops) rate (op/s)
host_tick_rate                              229532324                       # Simulator tick rate (ticks/s)
host_mem_usage                                1656560                       # Number of bytes of host memory used
host_seconds                                   594.05                       # Real time elapsed on the host
sim_insts                                   179433697                       # Number of instructions simulated
sim_ops                                     340832847                       # Number of ops (including micro ops) simulated
system.voltage_domain.voltage                       1                       # Voltage in Volts
system.clk_domain.clock                          1000                       # Clock period in ticks
system.mem_ctrls.pwrStateResidencyTicks::UNDEFINED 136353516000                       # Cumulative time (in ticks) in various power states
system.mem_ctrls.bytes_read::ruby.dir_cntrl0     18448000                       # Number of bytes read from this memory
system.mem_ctrls.bytes_read::total           18448000                       # Number of bytes read from this memory
system.mem_ctrls.bytes_written::ruby.dir_cntrl0       653440                       # Number of bytes written to this memory
system.mem_ctrls.bytes_written::total          653440                       # Number of bytes written to this memory
system.mem_ctrls.num_reads::ruby.dir_cntrl0       288250                       # Number of read requests responded to by this memory
system.mem_ctrls.num_reads::total              288250                       # Number of read requests responded to by this memory
system.mem_ctrls.num_writes::ruby.dir_cntrl0        10210                       # Number of write requests responded to by this memory
system.mem_ctrls.num_writes::total              10210                       # Number of write requests responded to by this memory
system.mem_ctrls.bw_read::ruby.dir_cntrl0    135295374                       # Total read bandwidth from this memory (bytes/s)
system.mem_ctrls.bw_read::total             135295374                       # Total read bandwidth from this memory (bytes/s)
system.mem_ctrls.bw_write::ruby.dir_cntrl0      4792249                       # Write bandwidth from this memory (bytes/s)
system.mem_ctrls.bw_write::total              4792249                       # Write bandwidth from this memory (bytes/s)
system.mem_ctrls.bw_total::ruby.dir_cntrl0    140087623                       # Total bandwidth to/from this memory (bytes/s)
system.mem_ctrls.bw_total::total            140087623                       # Total bandwidth to/from this memory (bytes/s)
system.mem_ctrls.readReqs                      288250                       # Number of read requests accepted
system.mem_ctrls.writeReqs                      10210                       # Number of write requests accepted
system.mem_ctrls.readBursts                    288250                       # Number of DRAM read bursts, including those serviced by the write queue
system.mem_ctrls.writeBursts                    10210                       # Number of DRAM write bursts, including those merged in the write queue
system.mem_ctrls.bytesReadDRAM               18447040                       # Total number of bytes read from DRAM
system.mem_ctrls.bytesReadWrQ                     960                       # Total number of bytes read from write queue
system.mem_ctrls.bytesWritten                  651456                       # Total number of bytes written to DRAM
system.mem_ctrls.bytesReadSys                18448000                       # Total read bytes from the system interface side
system.mem_ctrls.bytesWrittenSys               653440                       # Total written bytes from the system interface side
system.mem_ctrls.servicedByWrQ                     15                       # Number of DRAM read bursts serviced by the write queue
system.mem_ctrls.mergedWrBursts                     0                       # Number of DRAM write bursts merged with an existing one
system.mem_ctrls.neitherReadNorWriteReqs            0                       # Number of requests that are neither read nor write
system.mem_ctrls.perBankRdBursts::0             23192                       # Per bank write bursts
system.mem_ctrls.perBankRdBursts::1             16882                       # Per bank write bursts
system.mem_ctrls.perBankRdBursts::2             17294                       # Per bank write bursts
system.mem_ctrls.perBankRdBursts::3             17399                       # Per bank write bursts
system.mem_ctrls.perBankRdBursts::4             17279                       # Per bank write bursts
system.mem_ctrls.perBankRdBursts::5             17390                       # Per bank write bursts
system.mem_ctrls.perBankRdBursts::6             17008                       # Per bank write bursts
system.mem_ctrls.perBankRdBursts::7             16908                       # Per bank write bursts
system.mem_ctrls.perBankRdBursts::8             16857                       # Per bank write bursts
system.mem_ctrls.perBankRdBursts::9             17016                       # Per bank write bursts
system.mem_ctrls.perBankRdBursts::10            16734                       # Per bank write bursts
system.mem_ctrls.perBankRdBursts::11            16928                       # Per bank write bursts
system.mem_ctrls.perBankRdBursts::12            26864                       # Per bank write bursts
system.mem_ctrls.perBankRdBursts::13            16750                       # Per bank write bursts
system.mem_ctrls.perBankRdBursts::14            16893                       # Per bank write bursts
system.mem_ctrls.perBankRdBursts::15            16841                       # Per bank write bursts
system.mem_ctrls.perBankWrBursts::0               682                       # Per bank write bursts
system.mem_ctrls.perBankWrBursts::1               597                       # Per bank write bursts
system.mem_ctrls.perBankWrBursts::2               692                       # Per bank write bursts
system.mem_ctrls.perBankWrBursts::3               727                       # Per bank write bursts
system.mem_ctrls.perBankWrBursts::4               609                       # Per bank write bursts
system.mem_ctrls.perBankWrBursts::5               707                       # Per bank write bursts
system.mem_ctrls.perBankWrBursts::6               597                       # Per bank write bursts
system.mem_ctrls.perBankWrBursts::7               620                       # Per bank write bursts
system.mem_ctrls.perBankWrBursts::8               603                       # Per bank write bursts
system.mem_ctrls.perBankWrBursts::9               688                       # Per bank write bursts
system.mem_ctrls.perBankWrBursts::10              587                       # Per bank write bursts
system.mem_ctrls.perBankWrBursts::11              662                       # Per bank write bursts
system.mem_ctrls.perBankWrBursts::12              624                       # Per bank write bursts
system.mem_ctrls.perBankWrBursts::13              633                       # Per bank write bursts
system.mem_ctrls.perBankWrBursts::14              553                       # Per bank write bursts
system.mem_ctrls.perBankWrBursts::15              598                       # Per bank write bursts
system.mem_ctrls.numRdRetry                         0                       # Number of times read queue was full causing retry
system.mem_ctrls.numWrRetry                         0                       # Number of times write queue was full causing retry
system.mem_ctrls.totGap                  136353389500                       # Total gap between requests
system.mem_ctrls.readPktSize::0                     0                       # Read request sizes (log2)
system.mem_ctrls.readPktSize::1                     0                       # Read request sizes (log2)
system.mem_ctrls.readPktSize::2                     0                       # Read request sizes (log2)
system.mem_ctrls.readPktSize::3                     0                       # Read request sizes (log2)
system.mem_ctrls.readPktSize::4                     0                       # Read request sizes (log2)
system.mem_ctrls.readPktSize::5                     0                       # Read request sizes (log2)
system.mem_ctrls.readPktSize::6                288250                       # Read request sizes (log2)
system.mem_ctrls.writePktSize::0                    0                       # Write request sizes (log2)
system.mem_ctrls.writePktSize::1                    0                       # Write request sizes (log2)
system.mem_ctrls.writePktSize::2                    0                       # Write request sizes (log2)
system.mem_ctrls.writePktSize::3                    0                       # Write request sizes (log2)
system.mem_ctrls.writePktSize::4                    0                       # Write request sizes (log2)
system.mem_ctrls.writePktSize::5                    0                       # Write request sizes (log2)
system.mem_ctrls.writePktSize::6                10210                       # Write request sizes (log2)
system.mem_ctrls.rdQLenPdf::0                  276947                       # What read queue length does an incoming req see
system.mem_ctrls.rdQLenPdf::1                    2063                       # What read queue length does an incoming req see
system.mem_ctrls.rdQLenPdf::2                    2051                       # What read queue length does an incoming req see
system.mem_ctrls.rdQLenPdf::3                    2115                       # What read queue length does an incoming req see
system.mem_ctrls.rdQLenPdf::4                     988                       # What read queue length does an incoming req see
system.mem_ctrls.rdQLenPdf::5                     622                       # What read queue length does an incoming req see
system.mem_ctrls.rdQLenPdf::6                     545                       # What read queue length does an incoming req see
system.mem_ctrls.rdQLenPdf::7                    1113                       # What read queue length does an incoming req see
system.mem_ctrls.rdQLenPdf::8                     640                       # What read queue length does an incoming req see
system.mem_ctrls.rdQLenPdf::9                     197                       # What read queue length does an incoming req see
system.mem_ctrls.rdQLenPdf::10                    172                       # What read queue length does an incoming req see
system.mem_ctrls.rdQLenPdf::11                     83                       # What read queue length does an incoming req see
system.mem_ctrls.rdQLenPdf::12                     88                       # What read queue length does an incoming req see
system.mem_ctrls.rdQLenPdf::13                     78                       # What read queue length does an incoming req see
system.mem_ctrls.rdQLenPdf::14                     79                       # What read queue length does an incoming req see
system.mem_ctrls.rdQLenPdf::15                     76                       # What read queue length does an incoming req see
system.mem_ctrls.rdQLenPdf::16                     75                       # What read queue length does an incoming req see
system.mem_ctrls.rdQLenPdf::17                      4                       # What read queue length does an incoming req see
system.mem_ctrls.rdQLenPdf::18                      1                       # What read queue length does an incoming req see
system.mem_ctrls.rdQLenPdf::19                      1                       # What read queue length does an incoming req see
system.mem_ctrls.rdQLenPdf::20                      1                       # What read queue length does an incoming req see
system.mem_ctrls.rdQLenPdf::21                      1                       # What read queue length does an incoming req see
system.mem_ctrls.rdQLenPdf::22                      1                       # What read queue length does an incoming req see
system.mem_ctrls.rdQLenPdf::23                      1                       # What read queue length does an incoming req see
system.mem_ctrls.rdQLenPdf::24                      1                       # What read queue length does an incoming req see
system.mem_ctrls.rdQLenPdf::25                      1                       # What read queue length does an incoming req see
system.mem_ctrls.rdQLenPdf::26                      1                       # What read queue length does an incoming req see
system.mem_ctrls.rdQLenPdf::27                      1                       # What read queue length does an incoming req see
system.mem_ctrls.rdQLenPdf::28                      1                       # What read queue length does an incoming req see
system.mem_ctrls.rdQLenPdf::29                      1                       # What read queue length does an incoming req see
system.mem_ctrls.rdQLenPdf::30                      1                       # What read queue length does an incoming req see
system.mem_ctrls.rdQLenPdf::31                    286                       # What read queue length does an incoming req see
system.mem_ctrls.wrQLenPdf::0                       1                       # What write queue length does an incoming req see
system.mem_ctrls.wrQLenPdf::1                       1                       # What write queue length does an incoming req see
system.mem_ctrls.wrQLenPdf::2                       1                       # What write queue length does an incoming req see
system.mem_ctrls.wrQLenPdf::3                       1                       # What write queue length does an incoming req see
system.mem_ctrls.wrQLenPdf::4                       1                       # What write queue length does an incoming req see
system.mem_ctrls.wrQLenPdf::5                       1                       # What write queue length does an incoming req see
system.mem_ctrls.wrQLenPdf::6                       1                       # What write queue length does an incoming req see
system.mem_ctrls.wrQLenPdf::7                       1                       # What write queue length does an incoming req see
system.mem_ctrls.wrQLenPdf::8                       1                       # What write queue length does an incoming req see
system.mem_ctrls.wrQLenPdf::9                       1                       # What write queue length does an incoming req see
system.mem_ctrls.wrQLenPdf::10                      1                       # What write queue length does an incoming req see
system.mem_ctrls.wrQLenPdf::11                      1                       # What write queue length does an incoming req see
system.mem_ctrls.wrQLenPdf::12                      1                       # What write queue length does an incoming req see
system.mem_ctrls.wrQLenPdf::13                      1                       # What write queue length does an incoming req see
system.mem_ctrls.wrQLenPdf::14                      1                       # What write queue length does an incoming req see
system.mem_ctrls.wrQLenPdf::15                    388                       # What write queue length does an incoming req see
system.mem_ctrls.wrQLenPdf::16                    404                       # What write queue length does an incoming req see
system.mem_ctrls.wrQLenPdf::17                    548                       # What write queue length does an incoming req see
system.mem_ctrls.wrQLenPdf::18                    595                       # What write queue length does an incoming req see
system.mem_ctrls.wrQLenPdf::19                    595                       # What write queue length does an incoming req see
system.mem_ctrls.wrQLenPdf::20                    592                       # What write queue length does an incoming req see
system.mem_ctrls.wrQLenPdf::21                    595                       # What write queue length does an incoming req see
system.mem_ctrls.wrQLenPdf::22                    588                       # What write queue length does an incoming req see
system.mem_ctrls.wrQLenPdf::23                    590                       # What write queue length does an incoming req see
system.mem_ctrls.wrQLenPdf::24                    587                       # What write queue length does an incoming req see
system.mem_ctrls.wrQLenPdf::25                    586                       # What write queue length does an incoming req see
system.mem_ctrls.wrQLenPdf::26                    588                       # What write queue length does an incoming req see
system.mem_ctrls.wrQLenPdf::27                    586                       # What write queue length does an incoming req see
system.mem_ctrls.wrQLenPdf::28                    586                       # What write queue length does an incoming req see
system.mem_ctrls.wrQLenPdf::29                    586                       # What write queue length does an incoming req see
system.mem_ctrls.wrQLenPdf::30                    587                       # What write queue length does an incoming req see
system.mem_ctrls.wrQLenPdf::31                    585                       # What write queue length does an incoming req see
system.mem_ctrls.wrQLenPdf::32                    585                       # What write queue length does an incoming req see
system.mem_ctrls.wrQLenPdf::33                     23                       # What write queue length does an incoming req see
system.mem_ctrls.wrQLenPdf::34                      1                       # What write queue length does an incoming req see
system.mem_ctrls.wrQLenPdf::35                      0                       # What write queue length does an incoming req see
system.mem_ctrls.wrQLenPdf::36                      0                       # What write queue length does an incoming req see
system.mem_ctrls.wrQLenPdf::37                      0                       # What write queue length does an incoming req see
system.mem_ctrls.wrQLenPdf::38                      0                       # What write queue length does an incoming req see
system.mem_ctrls.wrQLenPdf::39                      0                       # What write queue length does an incoming req see
system.mem_ctrls.wrQLenPdf::40                      0                       # What write queue length does an incoming req see
system.mem_ctrls.wrQLenPdf::41                      0                       # What write queue length does an incoming req see
system.mem_ctrls.wrQLenPdf::42                      0                       # What write queue length does an incoming req see
system.mem_ctrls.wrQLenPdf::43                      0                       # What write queue length does an incoming req see
system.mem_ctrls.wrQLenPdf::44                      0                       # What write queue length does an incoming req see
system.mem_ctrls.wrQLenPdf::45                      0                       # What write queue length does an incoming req see
system.mem_ctrls.wrQLenPdf::46                      0                       # What write queue length does an incoming req see
system.mem_ctrls.wrQLenPdf::47                      0                       # What write queue length does an incoming req see
system.mem_ctrls.wrQLenPdf::48                      0                       # What write queue length does an incoming req see
system.mem_ctrls.wrQLenPdf::49                      0                       # What write queue length does an incoming req see
system.mem_ctrls.wrQLenPdf::50                      0                       # What write queue length does an incoming req see
system.mem_ctrls.wrQLenPdf::51                      0                       # What write queue length does an incoming req see
system.mem_ctrls.wrQLenPdf::52                      0                       # What write queue length does an incoming req see
system.mem_ctrls.wrQLenPdf::53                      0                       # What write queue length does an incoming req see
system.mem_ctrls.wrQLenPdf::54                      0                       # What write queue length does an incoming req see
system.mem_ctrls.wrQLenPdf::55                      0                       # What write queue length does an incoming req see
system.mem_ctrls.wrQLenPdf::56                      0                       # What write queue length does an incoming req see
system.mem_ctrls.wrQLenPdf::57                      0                       # What write queue length does an incoming req see
system.mem_ctrls.wrQLenPdf::58                      0                       # What write queue length does an incoming req see
system.mem_ctrls.wrQLenPdf::59                      0                       # What write queue length does an incoming req see
system.mem_ctrls.wrQLenPdf::60                      0                       # What write queue length does an incoming req see
system.mem_ctrls.wrQLenPdf::61                      0                       # What write queue length does an incoming req see
system.mem_ctrls.wrQLenPdf::62                      0                       # What write queue length does an incoming req see
system.mem_ctrls.wrQLenPdf::63                      0                       # What write queue length does an incoming req see
system.mem_ctrls.bytesPerActivate::samples        49431                       # Bytes accessed per row activation
system.mem_ctrls.bytesPerActivate::mean    386.355121                       # Bytes accessed per row activation
system.mem_ctrls.bytesPerActivate::gmean   205.816616                       # Bytes accessed per row activation
system.mem_ctrls.bytesPerActivate::stdev   395.329902                       # Bytes accessed per row activation
system.mem_ctrls.bytesPerActivate::0-127        20606     41.69%     41.69% # Bytes accessed per row activation
system.mem_ctrls.bytesPerActivate::128-255         6907     13.97%     55.66% # Bytes accessed per row activation
system.mem_ctrls.bytesPerActivate::256-383         4034      8.16%     63.82% # Bytes accessed per row activation
system.mem_ctrls.bytesPerActivate::384-511         1356      2.74%     66.56% # Bytes accessed per row activation
system.mem_ctrls.bytesPerActivate::512-639         2985      6.04%     72.60% # Bytes accessed per row activation
system.mem_ctrls.bytesPerActivate::640-767          742      1.50%     74.10% # Bytes accessed per row activation
system.mem_ctrls.bytesPerActivate::768-895          435      0.88%     74.98% # Bytes accessed per row activation
system.mem_ctrls.bytesPerActivate::896-1023          520      1.05%     76.04% # Bytes accessed per row activation
system.mem_ctrls.bytesPerActivate::1024-1151        11846     23.96%    100.00% # Bytes accessed per row activation
system.mem_ctrls.bytesPerActivate::total        49431                       # Bytes accessed per row activation
system.mem_ctrls.rdPerTurnAround::samples          585                       # Reads before turning the bus around for writes
system.mem_ctrls.rdPerTurnAround::mean     492.569231                       # Reads before turning the bus around for writes
system.mem_ctrls.rdPerTurnAround::stdev   7712.287829                       # Reads before turning the bus around for writes
system.mem_ctrls.rdPerTurnAround::0-8191          584     99.83%     99.83% # Reads before turning the bus around for writes
system.mem_ctrls.rdPerTurnAround::180224-188415            1      0.17%    100.00% # Reads before turning the bus around for writes
system.mem_ctrls.rdPerTurnAround::total           585                       # Reads before turning the bus around for writes
system.mem_ctrls.wrPerTurnAround::samples          585                       # Writes before turning the bus around for reads
system.mem_ctrls.wrPerTurnAround::mean      17.400000                       # Writes before turning the bus around for reads
system.mem_ctrls.wrPerTurnAround::gmean     17.371045                       # Writes before turning the bus around for reads
system.mem_ctrls.wrPerTurnAround::stdev      0.996913                       # Writes before turning the bus around for reads
system.mem_ctrls.wrPerTurnAround::16              182     31.11%     31.11% # Writes before turning the bus around for reads
system.mem_ctrls.wrPerTurnAround::17               15      2.56%     33.68% # Writes before turning the bus around for reads
system.mem_ctrls.wrPerTurnAround::18              367     62.74%     96.41% # Writes before turning the bus around for reads
system.mem_ctrls.wrPerTurnAround::19               16      2.74%     99.15% # Writes before turning the bus around for reads
system.mem_ctrls.wrPerTurnAround::20                4      0.68%     99.83% # Writes before turning the bus around for reads
system.mem_ctrls.wrPerTurnAround::22                1      0.17%    100.00% # Writes before turning the bus around for reads
system.mem_ctrls.wrPerTurnAround::total           585                       # Writes before turning the bus around for reads
system.mem_ctrls.totQLat                   5423302500                       # Total ticks spent queuing
system.mem_ctrls.totMemAccLat             10827708750                       # Total ticks spent from burst creation until serviced by the DRAM
system.mem_ctrls.totBusLat                 1441175000                       # Total ticks spent in databus transfers
system.mem_ctrls.avgQLat                     18815.56                       # Average queueing delay per DRAM burst
system.mem_ctrls.avgBusLat                    5000.00                       # Average bus latency per DRAM burst
system.mem_ctrls.avgMemAccLat                37565.56                       # Average memory access latency per DRAM burst
system.mem_ctrls.avgRdBW                       135.29                       # Average DRAM read bandwidth in MiByte/s
system.mem_ctrls.avgWrBW                         4.78                       # Average achieved write bandwidth in MiByte/s
system.mem_ctrls.avgRdBWSys                    135.30                       # Average system read bandwidth in MiByte/s
system.mem_ctrls.avgWrBWSys                      4.79                       # Average system write bandwidth in MiByte/s
system.mem_ctrls.peakBW                      12800.00                       # Theoretical peak bandwidth in MiByte/s
system.mem_ctrls.busUtil                         1.09                       # Data bus utilization in percentage
system.mem_ctrls.busUtilRead                     1.06                       # Data bus utilization in percentage for reads
system.mem_ctrls.busUtilWrite                    0.04                       # Data bus utilization in percentage for writes
system.mem_ctrls.avgRdQLen                       1.07                       # Average read queue length when enqueuing
system.mem_ctrls.avgWrQLen                      16.42                       # Average write queue length when enqueuing
system.mem_ctrls.readRowHits                   248101                       # Number of row buffer hits during reads
system.mem_ctrls.writeRowHits                     878                       # Number of row buffer hits during writes
system.mem_ctrls.readRowHitRate                 86.08                       # Row buffer hit rate for reads
system.mem_ctrls.writeRowHitRate                 8.60                       # Row buffer hit rate for writes
system.mem_ctrls.avgGap                     456856.50                       # Average gap between requests
system.mem_ctrls.pageHitRate                    83.43                       # Row buffer hit rate, read and write combined
system.mem_ctrls_0.actEnergy                186825240                       # Energy for activate commands per rank (pJ)
system.mem_ctrls_0.preEnergy                 99296175                       # Energy for precharge commands per rank (pJ)
system.mem_ctrls_0.readEnergy              1023533280                       # Energy for read commands per rank (pJ)
system.mem_ctrls_0.writeEnergy               27305820                       # Energy for write commands per rank (pJ)
system.mem_ctrls_0.refreshEnergy         4950310560.000001                       # Energy for refresh commands per rank (pJ)
system.mem_ctrls_0.actBackEnergy           3144542370                       # Energy for active background per rank (pJ)
system.mem_ctrls_0.preBackEnergy            246260640                       # Energy for precharge background per rank (pJ)
system.mem_ctrls_0.actPowerDownEnergy     18577883460                       # Energy for active power-down per rank (pJ)
system.mem_ctrls_0.prePowerDownEnergy      5663320320                       # Energy for precharge power-down per rank (pJ)
system.mem_ctrls_0.selfRefreshEnergy      18226949220                       # Energy for self refresh per rank (pJ)
system.mem_ctrls_0.totalEnergy            52147878855                       # Total energy per rank (pJ)
system.mem_ctrls_0.averagePower            382.446162                       # Core power per rank (mW)
system.mem_ctrls_0.totalIdleTime         128812564000                       # Total Idle time Per DRAM Rank
system.mem_ctrls_0.memoryStateTime::IDLE    377859000                       # Time in different power states
system.mem_ctrls_0.memoryStateTime::REF    2094040000                       # Time in different power states
system.mem_ctrls_0.memoryStateTime::SREF  73323391250                       # Time in different power states
system.mem_ctrls_0.memoryStateTime::PRE_PDN  14748272750                       # Time in different power states
system.mem_ctrls_0.memoryStateTime::ACT    5069014250                       # Time in different power states
system.mem_ctrls_0.memoryStateTime::ACT_PDN  40740938750                       # Time in different power states
system.mem_ctrls_1.actEnergy                166140660                       # Energy for activate commands per rank (pJ)
system.mem_ctrls_1.preEnergy                 88294470                       # Energy for precharge commands per rank (pJ)
system.mem_ctrls_1.readEnergy              1034464620                       # Energy for read commands per rank (pJ)
system.mem_ctrls_1.writeEnergy               25828560                       # Energy for write commands per rank (pJ)
system.mem_ctrls_1.refreshEnergy         4422949440.000001                       # Energy for refresh commands per rank (pJ)
system.mem_ctrls_1.actBackEnergy           3017542950                       # Energy for active background per rank (pJ)
system.mem_ctrls_1.preBackEnergy            235777440                       # Energy for precharge background per rank (pJ)
system.mem_ctrls_1.actPowerDownEnergy     16269679290                       # Energy for active power-down per rank (pJ)
system.mem_ctrls_1.prePowerDownEnergy      5158441920                       # Energy for precharge power-down per rank (pJ)
system.mem_ctrls_1.selfRefreshEnergy      19825213920                       # Energy for self refresh per rank (pJ)
system.mem_ctrls_1.totalEnergy            50246018310                       # Total energy per rank (pJ)
system.mem_ctrls_1.averagePower            368.498149                       # Core power per rank (mW)
system.mem_ctrls_1.totalIdleTime         129117760500                       # Total Idle time Per DRAM Rank
system.mem_ctrls_1.memoryStateTime::IDLE    370385000                       # Time in different power states
system.mem_ctrls_1.memoryStateTime::REF    1870960000                       # Time in different power states
system.mem_ctrls_1.memoryStateTime::SREF  80005768750                       # Time in different power states
system.mem_ctrls_1.memoryStateTime::PRE_PDN  13433521500                       # Time in different power states
system.mem_ctrls_1.memoryStateTime::ACT    4993695250                       # Time in different power states
system.mem_ctrls_1.memoryStateTime::ACT_PDN  35679185500                       # Time in different power states
system.ruby.clk_domain.clock                      500                       # Clock period in ticks
system.ruby.phys_mem.pwrStateResidencyTicks::UNDEFINED 136353516000                       # Cumulative time (in ticks) in various power states
system.ruby.phys_mem.bytes_read::cpu0.workload.drivers.device.hsapp        48000                       # Number of bytes read from this memory
system.ruby.phys_mem.bytes_read::cpu0.workload.drivers.device       194480                       # Number of bytes read from this memory
system.ruby.phys_mem.bytes_read::cpu0.inst    694913032                       # Number of bytes read from this memory
system.ruby.phys_mem.bytes_read::cpu0.data    149719278                       # Number of bytes read from this memory
system.ruby.phys_mem.bytes_read::cpu1.inst   1209280664                       # Number of bytes read from this memory
system.ruby.phys_mem.bytes_read::cpu1.data    351714541                       # Number of bytes read from this memory
system.ruby.phys_mem.bytes_read::cpu2.CUs0.ComputeUnit      3743572                       # Number of bytes read from this memory
system.ruby.phys_mem.bytes_read::cpu2.CUs1.ComputeUnit      3516484                       # Number of bytes read from this memory
system.ruby.phys_mem.bytes_read::cpu2.CUs2.ComputeUnit      3656920                       # Number of bytes read from this memory
system.ruby.phys_mem.bytes_read::cpu2.CUs3.ComputeUnit      3644968                       # Number of bytes read from this memory
system.ruby.phys_mem.bytes_read::total     2420431939                       # Number of bytes read from this memory
system.ruby.phys_mem.bytes_inst_read::cpu0.inst    694913032                       # Number of instructions bytes read from this memory
system.ruby.phys_mem.bytes_inst_read::cpu1.inst   1209280664                       # Number of instructions bytes read from this memory
system.ruby.phys_mem.bytes_inst_read::cpu2.CUs0.ComputeUnit      1339072                       # Number of instructions bytes read from this memory
system.ruby.phys_mem.bytes_inst_read::cpu2.CUs1.ComputeUnit      1195648                       # Number of instructions bytes read from this memory
system.ruby.phys_mem.bytes_inst_read::cpu2.CUs2.ComputeUnit      1147840                       # Number of instructions bytes read from this memory
system.ruby.phys_mem.bytes_inst_read::cpu2.CUs3.ComputeUnit      1291264                       # Number of instructions bytes read from this memory
system.ruby.phys_mem.bytes_inst_read::total   1909167520                       # Number of instructions bytes read from this memory
system.ruby.phys_mem.bytes_written::cpu0.workload.drivers.device.hsapp         6000                       # Number of bytes written to this memory
system.ruby.phys_mem.bytes_written::cpu0.workload.drivers.device         5984                       # Number of bytes written to this memory
system.ruby.phys_mem.bytes_written::cpu0.data     68345217                       # Number of bytes written to this memory
system.ruby.phys_mem.bytes_written::cpu1.data     23885587                       # Number of bytes written to this memory
system.ruby.phys_mem.bytes_written::cpu2.CUs0.ComputeUnit       128520                       # Number of bytes written to this memory
system.ruby.phys_mem.bytes_written::cpu2.CUs1.ComputeUnit       128568                       # Number of bytes written to this memory
system.ruby.phys_mem.bytes_written::cpu2.CUs2.ComputeUnit       128548                       # Number of bytes written to this memory
system.ruby.phys_mem.bytes_written::cpu2.CUs3.ComputeUnit       116468                       # Number of bytes written to this memory
system.ruby.phys_mem.bytes_written::total     92744892                       # Number of bytes written to this memory
system.ruby.phys_mem.num_reads::cpu0.workload.drivers.device.hsapp          750                       # Number of read requests responded to by this memory
system.ruby.phys_mem.num_reads::cpu0.workload.drivers.device         3740                       # Number of read requests responded to by this memory
system.ruby.phys_mem.num_reads::cpu0.inst     86864129                       # Number of read requests responded to by this memory
system.ruby.phys_mem.num_reads::cpu0.data     20402411                       # Number of read requests responded to by this memory
system.ruby.phys_mem.num_reads::cpu1.inst    151160083                       # Number of read requests responded to by this memory
system.ruby.phys_mem.num_reads::cpu1.data     48895180                       # Number of read requests responded to by this memory
system.ruby.phys_mem.num_reads::cpu2.CUs0.ComputeUnit       643492                       # Number of read requests responded to by this memory
system.ruby.phys_mem.num_reads::cpu2.CUs1.ComputeUnit       620335                       # Number of read requests responded to by this memory
system.ruby.phys_mem.num_reads::cpu2.CUs2.ComputeUnit       666649                       # Number of read requests responded to by this memory
system.ruby.phys_mem.num_reads::cpu2.CUs3.ComputeUnit       630046                       # Number of read requests responded to by this memory
system.ruby.phys_mem.num_reads::total       309886815                       # Number of read requests responded to by this memory
system.ruby.phys_mem.num_writes::cpu0.workload.drivers.device.hsapp          750                       # Number of write requests responded to by this memory
system.ruby.phys_mem.num_writes::cpu0.workload.drivers.device          748                       # Number of write requests responded to by this memory
system.ruby.phys_mem.num_writes::cpu0.data      9296825                       # Number of write requests responded to by this memory
system.ruby.phys_mem.num_writes::cpu1.data      2985936                       # Number of write requests responded to by this memory
system.ruby.phys_mem.num_writes::cpu2.CUs0.ComputeUnit        32130                       # Number of write requests responded to by this memory
system.ruby.phys_mem.num_writes::cpu2.CUs1.ComputeUnit        32142                       # Number of write requests responded to by this memory
system.ruby.phys_mem.num_writes::cpu2.CUs2.ComputeUnit        32137                       # Number of write requests responded to by this memory
system.ruby.phys_mem.num_writes::cpu2.CUs3.ComputeUnit        29117                       # Number of write requests responded to by this memory
system.ruby.phys_mem.num_writes::total       12409785                       # Number of write requests responded to by this memory
system.ruby.phys_mem.bw_read::cpu0.workload.drivers.device.hsapp       352026                       # Total read bandwidth from this memory (bytes/s)
system.ruby.phys_mem.bw_read::cpu0.workload.drivers.device      1426293                       # Total read bandwidth from this memory (bytes/s)
system.ruby.phys_mem.bw_read::cpu0.inst    5096407136                       # Total read bandwidth from this memory (bytes/s)
system.ruby.phys_mem.bw_read::cpu0.data    1098022863                       # Total read bandwidth from this memory (bytes/s)
system.ruby.phys_mem.bw_read::cpu1.inst    8868716403                       # Total read bandwidth from this memory (bytes/s)
system.ruby.phys_mem.bw_read::cpu1.data    2579431402                       # Total read bandwidth from this memory (bytes/s)
system.ruby.phys_mem.bw_read::cpu2.CUs0.ComputeUnit     27454899                       # Total read bandwidth from this memory (bytes/s)
system.ruby.phys_mem.bw_read::cpu2.CUs1.ComputeUnit     25789463                       # Total read bandwidth from this memory (bytes/s)
system.ruby.phys_mem.bw_read::cpu2.CUs2.ComputeUnit     26819404                       # Total read bandwidth from this memory (bytes/s)
system.ruby.phys_mem.bw_read::cpu2.CUs3.ComputeUnit     26731749                       # Total read bandwidth from this memory (bytes/s)
system.ruby.phys_mem.bw_read::total       17751151639                       # Total read bandwidth from this memory (bytes/s)
system.ruby.phys_mem.bw_inst_read::cpu0.inst   5096407136                       # Instruction read bandwidth from this memory (bytes/s)
system.ruby.phys_mem.bw_inst_read::cpu1.inst   8868716403                       # Instruction read bandwidth from this memory (bytes/s)
system.ruby.phys_mem.bw_inst_read::cpu2.CUs0.ComputeUnit      9820590                       # Instruction read bandwidth from this memory (bytes/s)
system.ruby.phys_mem.bw_inst_read::cpu2.CUs1.ComputeUnit      8768736                       # Instruction read bandwidth from this memory (bytes/s)
system.ruby.phys_mem.bw_inst_read::cpu2.CUs2.ComputeUnit      8418118                       # Instruction read bandwidth from this memory (bytes/s)
system.ruby.phys_mem.bw_inst_read::cpu2.CUs3.ComputeUnit      9469972                       # Instruction read bandwidth from this memory (bytes/s)
system.ruby.phys_mem.bw_inst_read::total  14001600956                       # Instruction read bandwidth from this memory (bytes/s)
system.ruby.phys_mem.bw_write::cpu0.workload.drivers.device.hsapp        44003                       # Write bandwidth from this memory (bytes/s)
system.ruby.phys_mem.bw_write::cpu0.workload.drivers.device        43886                       # Write bandwidth from this memory (bytes/s)
system.ruby.phys_mem.bw_write::cpu0.data    501235458                       # Write bandwidth from this memory (bytes/s)
system.ruby.phys_mem.bw_write::cpu1.data    175173972                       # Write bandwidth from this memory (bytes/s)
system.ruby.phys_mem.bw_write::cpu2.CUs0.ComputeUnit       942550                       # Write bandwidth from this memory (bytes/s)
system.ruby.phys_mem.bw_write::cpu2.CUs1.ComputeUnit       942902                       # Write bandwidth from this memory (bytes/s)
system.ruby.phys_mem.bw_write::cpu2.CUs2.ComputeUnit       942755                       # Write bandwidth from this memory (bytes/s)
system.ruby.phys_mem.bw_write::cpu2.CUs3.ComputeUnit       854162                       # Write bandwidth from this memory (bytes/s)
system.ruby.phys_mem.bw_write::total        680179688                       # Write bandwidth from this memory (bytes/s)
system.ruby.phys_mem.bw_total::cpu0.workload.drivers.device.hsapp       396029                       # Total bandwidth to/from this memory (bytes/s)
system.ruby.phys_mem.bw_total::cpu0.workload.drivers.device      1470178                       # Total bandwidth to/from this memory (bytes/s)
system.ruby.phys_mem.bw_total::cpu0.inst   5096407136                       # Total bandwidth to/from this memory (bytes/s)
system.ruby.phys_mem.bw_total::cpu0.data   1599258321                       # Total bandwidth to/from this memory (bytes/s)
system.ruby.phys_mem.bw_total::cpu1.inst   8868716403                       # Total bandwidth to/from this memory (bytes/s)
system.ruby.phys_mem.bw_total::cpu1.data   2754605374                       # Total bandwidth to/from this memory (bytes/s)
system.ruby.phys_mem.bw_total::cpu2.CUs0.ComputeUnit     28397449                       # Total bandwidth to/from this memory (bytes/s)
system.ruby.phys_mem.bw_total::cpu2.CUs1.ComputeUnit     26732365                       # Total bandwidth to/from this memory (bytes/s)
system.ruby.phys_mem.bw_total::cpu2.CUs2.ComputeUnit     27762159                       # Total bandwidth to/from this memory (bytes/s)
system.ruby.phys_mem.bw_total::cpu2.CUs3.ComputeUnit     27585911                       # Total bandwidth to/from this memory (bytes/s)
system.ruby.phys_mem.bw_total::total      18431331327                       # Total bandwidth to/from this memory (bytes/s)
system.pwrStateResidencyTicks::UNDEFINED 136353516000                       # Cumulative time (in ticks) in various power states
system.cpu0.clk_domain.voltage_domain.voltage            1                       # Voltage in Volts
system.cpu0.clk_domain.clock                      500                       # Clock period in ticks
system.cpu0.dtb.walker.pwrStateResidencyTicks::UNDEFINED 136353516000                       # Cumulative time (in ticks) in various power states
system.cpu0.dtb.rdAccesses                   20402411                       # TLB accesses on read requests
system.cpu0.dtb.wrAccesses                    9297575                       # TLB accesses on write requests
system.cpu0.dtb.rdMisses                       210286                       # TLB misses on read requests
system.cpu0.dtb.wrMisses                        11827                       # TLB misses on write requests
system.cpu0.apic_clk_domain.clock                8000                       # Clock period in ticks
system.cpu0.interrupts.pwrStateResidencyTicks::UNDEFINED 136353516000                       # Cumulative time (in ticks) in various power states
system.cpu0.itb.walker.pwrStateResidencyTicks::UNDEFINED 136353516000                       # Cumulative time (in ticks) in various power states
system.cpu0.itb.rdAccesses                          0                       # TLB accesses on read requests
system.cpu0.itb.wrAccesses                   86864130                       # TLB accesses on write requests
system.cpu0.itb.rdMisses                            0                       # TLB misses on read requests
system.cpu0.itb.wrMisses                        48048                       # TLB misses on write requests
system.cpu0.workload.drivers.device.dispatcher.num_kernel_launched          748                       # number of kernel launched
system.cpu0.workload.drivers.device.dispatcher.cycles_wait_dispatch         2244                       # number of cycles with outstanding wavefronts that are waiting to be dispatched
system.cpu0.workload.drivers.device.hsapp.pwrStateResidencyTicks::UNDEFINED 136353516000                       # Cumulative time (in ticks) in various power states
system.cpu0.workload.drivers.device.pwrStateResidencyTicks::UNDEFINED 136353516000                       # Cumulative time (in ticks) in various power states
system.cpu0.workload.numSyscalls               182039                       # Number of system calls
system.cpu0.numPwrStateTransitions                  2                       # Number of power state transitions
system.cpu0.pwrStateClkGateDist::samples            1                       # Distribution of time spent in the clock gated state
system.cpu0.pwrStateClkGateDist::mean        14661500                       # Distribution of time spent in the clock gated state
system.cpu0.pwrStateClkGateDist::1000-5e+10            1    100.00%    100.00% # Distribution of time spent in the clock gated state
system.cpu0.pwrStateClkGateDist::min_value     14661500                       # Distribution of time spent in the clock gated state
system.cpu0.pwrStateClkGateDist::max_value     14661500                       # Distribution of time spent in the clock gated state
system.cpu0.pwrStateClkGateDist::total              1                       # Distribution of time spent in the clock gated state
system.cpu0.pwrStateResidencyTicks::ON   136338854500                       # Cumulative time (in ticks) in various power states
system.cpu0.pwrStateResidencyTicks::CLK_GATED     14661500                       # Cumulative time (in ticks) in various power states
system.cpu0.numCycles                       272707032                       # number of cpu cycles simulated
system.cpu0.numWorkItemsStarted                     0                       # number of work items this cpu started
system.cpu0.numWorkItemsCompleted                   0                       # number of work items this cpu completed
system.cpu0.committedInsts                   66890816                       # Number of instructions committed
system.cpu0.committedOps                    129835410                       # Number of ops (including micro ops) committed
system.cpu0.num_int_alu_accesses            125619520                       # Number of integer alu accesses
system.cpu0.num_fp_alu_accesses               6868085                       # Number of float alu accesses
system.cpu0.num_vec_alu_accesses                    0                       # Number of vector alu accesses
system.cpu0.num_func_calls                    2744814                       # number of times a function call or return occured
system.cpu0.num_conditional_control_insts     12556888                       # number of instructions that are conditional controls
system.cpu0.num_int_insts                   125619520                       # number of integer instructions
system.cpu0.num_fp_insts                      6868085                       # number of float instructions
system.cpu0.num_vec_insts                           0                       # number of vector instructions
system.cpu0.num_int_register_reads          245120638                       # number of times the integer registers were read
system.cpu0.num_int_register_writes          98567413                       # number of times the integer registers were written
system.cpu0.num_fp_register_reads             9749185                       # number of times the floating registers were read
system.cpu0.num_fp_register_writes            4814134                       # number of times the floating registers were written
system.cpu0.num_vec_register_reads                  0                       # number of times the vector registers were read
system.cpu0.num_vec_register_writes                 0                       # number of times the vector registers were written
system.cpu0.num_cc_register_reads            77696326                       # number of times the CC registers were read
system.cpu0.num_cc_register_writes           42456355                       # number of times the CC registers were written
system.cpu0.num_mem_refs                     29688077                       # number of memory refs
system.cpu0.num_load_insts                   20394235                       # Number of load instructions
system.cpu0.num_store_insts                   9293842                       # Number of store instructions
system.cpu0.num_idle_cycles              29323.000000                       # Number of idle cycles
system.cpu0.num_busy_cycles              272677709.000000                       # Number of busy cycles
system.cpu0.not_idle_fraction                0.999892                       # Percentage of non-idle cycles
system.cpu0.idle_fraction                    0.000108                       # Percentage of idle cycles
system.cpu0.Branches                         16479610                       # Number of branches fetched
system.cpu0.op_class::No_OpClass               226590      0.17%      0.17% # Class of executed instruction
system.cpu0.op_class::IntAlu                 95617057     73.64%     73.82% # Class of executed instruction
system.cpu0.op_class::IntMult                  269822      0.21%     74.03% # Class of executed instruction
system.cpu0.op_class::IntDiv                   171582      0.13%     74.16% # Class of executed instruction
system.cpu0.op_class::FloatAdd                  13807      0.01%     74.17% # Class of executed instruction
system.cpu0.op_class::FloatCmp                      8      0.00%     74.17% # Class of executed instruction
system.cpu0.op_class::FloatCvt                   8512      0.01%     74.18% # Class of executed instruction
system.cpu0.op_class::FloatMult                     9      0.00%     74.18% # Class of executed instruction
system.cpu0.op_class::FloatMultAcc                  0      0.00%     74.18% # Class of executed instruction
system.cpu0.op_class::FloatDiv                      8      0.00%     74.18% # Class of executed instruction
system.cpu0.op_class::FloatMisc                     0      0.00%     74.18% # Class of executed instruction
system.cpu0.op_class::FloatSqrt                     0      0.00%     74.18% # Class of executed instruction
system.cpu0.op_class::SimdAdd                   53538      0.04%     74.22% # Class of executed instruction
system.cpu0.op_class::SimdAddAcc                    0      0.00%     74.22% # Class of executed instruction
system.cpu0.op_class::SimdAlu                 1192262      0.92%     75.14% # Class of executed instruction
system.cpu0.op_class::SimdCmp                   17682      0.01%     75.15% # Class of executed instruction
system.cpu0.op_class::SimdCvt                  191886      0.15%     75.30% # Class of executed instruction
system.cpu0.op_class::SimdMisc                 723926      0.56%     75.86% # Class of executed instruction
system.cpu0.op_class::SimdMult                      0      0.00%     75.86% # Class of executed instruction
system.cpu0.op_class::SimdMultAcc                   0      0.00%     75.86% # Class of executed instruction
system.cpu0.op_class::SimdShift                 33510      0.03%     75.88% # Class of executed instruction
system.cpu0.op_class::SimdShiftAcc                  0      0.00%     75.88% # Class of executed instruction
system.cpu0.op_class::SimdSqrt                      0      0.00%     75.88% # Class of executed instruction
system.cpu0.op_class::SimdFloatAdd             180951      0.14%     76.02% # Class of executed instruction
system.cpu0.op_class::SimdFloatAlu                  0      0.00%     76.02% # Class of executed instruction
system.cpu0.op_class::SimdFloatCmp                  0      0.00%     76.02% # Class of executed instruction
system.cpu0.op_class::SimdFloatCvt            1083518      0.83%     76.85% # Class of executed instruction
system.cpu0.op_class::SimdFloatDiv                753      0.00%     76.86% # Class of executed instruction
system.cpu0.op_class::SimdFloatMisc                 0      0.00%     76.86% # Class of executed instruction
system.cpu0.op_class::SimdFloatMult            361912      0.28%     77.13% # Class of executed instruction
system.cpu0.op_class::SimdFloatMultAcc              0      0.00%     77.13% # Class of executed instruction
system.cpu0.op_class::SimdFloatSqrt                 0      0.00%     77.13% # Class of executed instruction
system.cpu0.op_class::MemRead                18952455     14.60%     91.73% # Class of executed instruction
system.cpu0.op_class::MemWrite                8104377      6.24%     97.97% # Class of executed instruction
system.cpu0.op_class::FloatMemRead            1441780      1.11%     99.08% # Class of executed instruction
system.cpu0.op_class::FloatMemWrite           1189465      0.92%    100.00% # Class of executed instruction
system.cpu0.op_class::IprAccess                     0      0.00%    100.00% # Class of executed instruction
system.cpu0.op_class::InstPrefetch                  0      0.00%    100.00% # Class of executed instruction
system.cpu0.op_class::total                 129835410                       # Class of executed instruction
system.cpu1.clk_domain.voltage_domain.voltage            1                       # Voltage in Volts
system.cpu1.clk_domain.clock                      500                       # Clock period in ticks
system.cpu1.dtb.walker.pwrStateResidencyTicks::UNDEFINED 136353516000                       # Cumulative time (in ticks) in various power states
system.cpu1.dtb.rdAccesses                   48895180                       # TLB accesses on read requests
system.cpu1.dtb.wrAccesses                    2985936                       # TLB accesses on write requests
system.cpu1.dtb.rdMisses                          211                       # TLB misses on read requests
system.cpu1.dtb.wrMisses                            4                       # TLB misses on write requests
system.cpu1.apic_clk_domain.clock                8000                       # Clock period in ticks
system.cpu1.interrupts.pwrStateResidencyTicks::UNDEFINED 136353516000                       # Cumulative time (in ticks) in various power states
system.cpu1.itb.walker.pwrStateResidencyTicks::UNDEFINED 136353516000                       # Cumulative time (in ticks) in various power states
system.cpu1.itb.rdAccesses                          0                       # TLB accesses on read requests
system.cpu1.itb.wrAccesses                  151160083                       # TLB accesses on write requests
system.cpu1.itb.rdMisses                            0                       # TLB misses on read requests
system.cpu1.itb.wrMisses                          124                       # TLB misses on write requests
system.cpu1.pwrStateResidencyTicks::ON   136353516000                       # Cumulative time (in ticks) in various power states
system.cpu1.numCycles                       272258615                       # number of cpu cycles simulated
system.cpu1.numWorkItemsStarted                     0                       # number of work items this cpu started
system.cpu1.numWorkItemsCompleted                   0                       # number of work items this cpu completed
system.cpu1.committedInsts                  112542881                       # Number of instructions committed
system.cpu1.committedOps                    210997437                       # Number of ops (including micro ops) committed
system.cpu1.num_int_alu_accesses            206029359                       # Number of integer alu accesses
system.cpu1.num_fp_alu_accesses               8279562                       # Number of float alu accesses
system.cpu1.num_vec_alu_accesses                    0                       # Number of vector alu accesses
system.cpu1.num_func_calls                    5967523                       # number of times a function call or return occured
system.cpu1.num_conditional_control_insts     24197842                       # number of instructions that are conditional controls
system.cpu1.num_int_insts                   206029359                       # number of integer instructions
system.cpu1.num_fp_insts                      8279562                       # number of float instructions
system.cpu1.num_vec_insts                           0                       # number of vector instructions
system.cpu1.num_int_register_reads          397314131                       # number of times the integer registers were read
system.cpu1.num_int_register_writes         166583056                       # number of times the integer registers were written
system.cpu1.num_fp_register_reads            12419378                       # number of times the floating registers were read
system.cpu1.num_fp_register_writes            7451350                       # number of times the floating registers were written
system.cpu1.num_vec_register_reads                  0                       # number of times the vector registers were read
system.cpu1.num_vec_register_writes                 0                       # number of times the vector registers were written
system.cpu1.num_cc_register_reads           173701379                       # number of times the CC registers were read
system.cpu1.num_cc_register_writes           69613296                       # number of times the CC registers were written
system.cpu1.num_mem_refs                     51881116                       # number of memory refs
system.cpu1.num_load_insts                   48895180                       # Number of load instructions
system.cpu1.num_store_insts                   2985936                       # Number of store instructions
system.cpu1.num_idle_cycles              69381036.634738                       # Number of idle cycles
system.cpu1.num_busy_cycles              202877578.365262                       # Number of busy cycles
system.cpu1.not_idle_fraction                0.745165                       # Percentage of non-idle cycles
system.cpu1.idle_fraction                    0.254835                       # Percentage of idle cycles
system.cpu1.Branches                         33149119                       # Number of branches fetched
system.cpu1.op_class::No_OpClass                  399      0.00%      0.00% # Class of executed instruction
system.cpu1.op_class::IntAlu                153320270     72.66%     72.66% # Class of executed instruction
system.cpu1.op_class::IntMult                       0      0.00%     72.66% # Class of executed instruction
system.cpu1.op_class::IntDiv                       86      0.00%     72.66% # Class of executed instruction
system.cpu1.op_class::FloatAdd                     41      0.00%     72.66% # Class of executed instruction
system.cpu1.op_class::FloatCmp                      0      0.00%     72.66% # Class of executed instruction
system.cpu1.op_class::FloatCvt                     80      0.00%     72.66% # Class of executed instruction
system.cpu1.op_class::FloatMult                     0      0.00%     72.66% # Class of executed instruction
system.cpu1.op_class::FloatMultAcc                  0      0.00%     72.66% # Class of executed instruction
system.cpu1.op_class::FloatDiv                      0      0.00%     72.66% # Class of executed instruction
system.cpu1.op_class::FloatMisc                     0      0.00%     72.66% # Class of executed instruction
system.cpu1.op_class::FloatSqrt                     0      0.00%     72.66% # Class of executed instruction
system.cpu1.op_class::SimdAdd                     248      0.00%     72.66% # Class of executed instruction
system.cpu1.op_class::SimdAddAcc                    0      0.00%     72.66% # Class of executed instruction
system.cpu1.op_class::SimdAlu                 1655739      0.78%     73.45% # Class of executed instruction
system.cpu1.op_class::SimdCmp                       0      0.00%     73.45% # Class of executed instruction
system.cpu1.op_class::SimdCvt                     496      0.00%     73.45% # Class of executed instruction
system.cpu1.op_class::SimdMisc                 827976      0.39%     73.84% # Class of executed instruction
system.cpu1.op_class::SimdMult                      0      0.00%     73.84% # Class of executed instruction
system.cpu1.op_class::SimdMultAcc                   0      0.00%     73.84% # Class of executed instruction
system.cpu1.op_class::SimdShift                    94      0.00%     73.84% # Class of executed instruction
system.cpu1.op_class::SimdShiftAcc                  0      0.00%     73.84% # Class of executed instruction
system.cpu1.op_class::SimdSqrt                      0      0.00%     73.84% # Class of executed instruction
system.cpu1.op_class::SimdFloatAdd             827720      0.39%     74.23% # Class of executed instruction
system.cpu1.op_class::SimdFloatAlu                  0      0.00%     74.23% # Class of executed instruction
system.cpu1.op_class::SimdFloatCmp                  0      0.00%     74.23% # Class of executed instruction
system.cpu1.op_class::SimdFloatCvt            1655444      0.78%     75.02% # Class of executed instruction
system.cpu1.op_class::SimdFloatDiv                  4      0.00%     75.02% # Class of executed instruction
system.cpu1.op_class::SimdFloatMisc                 0      0.00%     75.02% # Class of executed instruction
system.cpu1.op_class::SimdFloatMult            827724      0.39%     75.41% # Class of executed instruction
system.cpu1.op_class::SimdFloatMultAcc              0      0.00%     75.41% # Class of executed instruction
system.cpu1.op_class::SimdFloatSqrt                 0      0.00%     75.41% # Class of executed instruction
system.cpu1.op_class::MemRead                46411364     22.00%     97.41% # Class of executed instruction
system.cpu1.op_class::MemWrite                2985768      1.42%     98.82% # Class of executed instruction
system.cpu1.op_class::FloatMemRead            2483816      1.18%    100.00% # Class of executed instruction
system.cpu1.op_class::FloatMemWrite               168      0.00%    100.00% # Class of executed instruction
system.cpu1.op_class::IprAccess                     0      0.00%    100.00% # Class of executed instruction
system.cpu1.op_class::InstPrefetch                  0      0.00%    100.00% # Class of executed instruction
system.cpu1.op_class::total                 210997437                       # Class of executed instruction
system.cpu2.clk_domain.voltage_domain.voltage            1                       # Voltage in Volts
system.cpu2.clk_domain.clock                     1000                       # Clock period in ticks
system.cpu2.CUs0.localDataStore.pwrStateResidencyTicks::UNDEFINED 136353516000                       # Cumulative time (in ticks) in various power states
system.cpu2.CUs0.scalar_register_file0.register_reads       122315                       # Total number of DWORDs read from register file
system.cpu2.CUs0.scalar_register_file0.register_writes       157925                       # Total number of DWORDS written to register file
system.cpu2.CUs0.scalar_register_file0.sram_reads            0                       # Total number of register file bank SRAM activations for reads
system.cpu2.CUs0.scalar_register_file0.sram_writes            0                       # Total number of register file bank SRAM activations for writes
system.cpu2.CUs0.scalar_register_file1.register_reads            0                       # Total number of DWORDs read from register file
system.cpu2.CUs0.scalar_register_file1.register_writes            0                       # Total number of DWORDS written to register file
system.cpu2.CUs0.scalar_register_file1.sram_reads            0                       # Total number of register file bank SRAM activations for reads
system.cpu2.CUs0.scalar_register_file1.sram_writes            0                       # Total number of register file bank SRAM activations for writes
system.cpu2.CUs0.scalar_register_file2.register_reads            0                       # Total number of DWORDs read from register file
system.cpu2.CUs0.scalar_register_file2.register_writes            0                       # Total number of DWORDS written to register file
system.cpu2.CUs0.scalar_register_file2.sram_reads            0                       # Total number of register file bank SRAM activations for reads
system.cpu2.CUs0.scalar_register_file2.sram_writes            0                       # Total number of register file bank SRAM activations for writes
system.cpu2.CUs0.scalar_register_file3.register_reads            0                       # Total number of DWORDs read from register file
system.cpu2.CUs0.scalar_register_file3.register_writes            0                       # Total number of DWORDS written to register file
system.cpu2.CUs0.scalar_register_file3.sram_reads            0                       # Total number of register file bank SRAM activations for reads
system.cpu2.CUs0.scalar_register_file3.sram_writes            0                       # Total number of register file bank SRAM activations for writes
system.cpu2.CUs0.vector_register_file0.register_reads      7550566                       # Total number of DWORDs read from register file
system.cpu2.CUs0.vector_register_file0.register_writes      5101602                       # Total number of DWORDS written to register file
system.cpu2.CUs0.vector_register_file0.sram_reads      2282251                       # Total number of register file bank SRAM activations for reads
system.cpu2.CUs0.vector_register_file0.sram_writes      1554972                       # Total number of register file bank SRAM activations for writes
system.cpu2.CUs0.vector_register_file1.register_reads            0                       # Total number of DWORDs read from register file
system.cpu2.CUs0.vector_register_file1.register_writes            0                       # Total number of DWORDS written to register file
system.cpu2.CUs0.vector_register_file1.sram_reads            0                       # Total number of register file bank SRAM activations for reads
system.cpu2.CUs0.vector_register_file1.sram_writes            0                       # Total number of register file bank SRAM activations for writes
system.cpu2.CUs0.vector_register_file2.register_reads            0                       # Total number of DWORDs read from register file
system.cpu2.CUs0.vector_register_file2.register_writes            0                       # Total number of DWORDS written to register file
system.cpu2.CUs0.vector_register_file2.sram_reads            0                       # Total number of register file bank SRAM activations for reads
system.cpu2.CUs0.vector_register_file2.sram_writes            0                       # Total number of register file bank SRAM activations for writes
system.cpu2.CUs0.vector_register_file3.register_reads            0                       # Total number of DWORDs read from register file
system.cpu2.CUs0.vector_register_file3.register_writes            0                       # Total number of DWORDS written to register file
system.cpu2.CUs0.vector_register_file3.sram_reads            0                       # Total number of register file bank SRAM activations for reads
system.cpu2.CUs0.vector_register_file3.sram_writes            0                       # Total number of register file bank SRAM activations for writes
system.cpu2.CUs0.wavefronts00.num_instr_executed       175365                       # number of instructions executed by this WF slot
system.cpu2.CUs0.wavefronts00.sch_cycles       350611                       # number of cycles spent in schedule stage
system.cpu2.CUs0.wavefronts00.sch_stalls       175246                       # number of cycles WF is stalled in SCH stage
system.cpu2.CUs0.wavefronts00.sch_rf_access_stalls            0                       # number of cycles wave selected in SCH but RF denied adding instruction
system.cpu2.CUs0.wavefronts00.sch_resource_stalls       175246                       # number of cycles stalled in sch by resource not available
system.cpu2.CUs0.wavefronts00.sch_opd_nrdy_stalls            0                       # number of cycles stalled in sch waiting for RF reads to complete
system.cpu2.CUs0.wavefronts00.sch_lds_arb_stalls            0                       # number of cycles wave stalled due to LDS-VRF arbitration
system.cpu2.CUs0.wavefronts00.timesBlockedDueWAXDependencies            0                       # number of times the wf's instructions are blocked due to WAW or WAR dependencies
system.cpu2.CUs0.wavefronts00.timesBlockedDueRAWDependencies       278480                       # number of times the wf's instructions are blocked due to RAW dependencies
system.cpu2.CUs0.wavefronts00.vec_raw_distance::samples       184828                       # Count of RAW distance in dynamic instructions for this WF
system.cpu2.CUs0.wavefronts00.vec_raw_distance::mean   717.964940                       # Count of RAW distance in dynamic instructions for this WF
system.cpu2.CUs0.wavefronts00.vec_raw_distance::stdev  9069.046173                       # Count of RAW distance in dynamic instructions for this WF
system.cpu2.CUs0.wavefronts00.vec_raw_distance::underflows            0      0.00%      0.00% # Count of RAW distance in dynamic instructions for this WF
system.cpu2.CUs0.wavefronts00.vec_raw_distance::0            0      0.00%      0.00% # Count of RAW distance in dynamic instructions for this WF
system.cpu2.CUs0.wavefronts00.vec_raw_distance::1        36371     19.68%     19.68% # Count of RAW distance in dynamic instructions for this WF
system.cpu2.CUs0.wavefronts00.vec_raw_distance::2        24417     13.21%     32.89% # Count of RAW distance in dynamic instructions for this WF
system.cpu2.CUs0.wavefronts00.vec_raw_distance::3         3739      2.02%     34.91% # Count of RAW distance in dynamic instructions for this WF
system.cpu2.CUs0.wavefronts00.vec_raw_distance::4         8220      4.45%     39.36% # Count of RAW distance in dynamic instructions for this WF
system.cpu2.CUs0.wavefronts00.vec_raw_distance::5        19179     10.38%     49.74% # Count of RAW distance in dynamic instructions for this WF
system.cpu2.CUs0.wavefronts00.vec_raw_distance::6        15194      8.22%     57.96% # Count of RAW distance in dynamic instructions for this WF
system.cpu2.CUs0.wavefronts00.vec_raw_distance::7        16935      9.16%     67.12% # Count of RAW distance in dynamic instructions for this WF
system.cpu2.CUs0.wavefronts00.vec_raw_distance::8         1995      1.08%     68.20% # Count of RAW distance in dynamic instructions for this WF
system.cpu2.CUs0.wavefronts00.vec_raw_distance::9         1496      0.81%     69.01% # Count of RAW distance in dynamic instructions for this WF
system.cpu2.CUs0.wavefronts00.vec_raw_distance::10          998      0.54%     69.55% # Count of RAW distance in dynamic instructions for this WF
system.cpu2.CUs0.wavefronts00.vec_raw_distance::11          997      0.54%     70.09% # Count of RAW distance in dynamic instructions for this WF
system.cpu2.CUs0.wavefronts00.vec_raw_distance::12         5230      2.83%     72.92% # Count of RAW distance in dynamic instructions for this WF
system.cpu2.CUs0.wavefronts00.vec_raw_distance::13         5230      2.83%     75.75% # Count of RAW distance in dynamic instructions for this WF
system.cpu2.CUs0.wavefronts00.vec_raw_distance::14          747      0.40%     76.15% # Count of RAW distance in dynamic instructions for this WF
system.cpu2.CUs0.wavefronts00.vec_raw_distance::15            0      0.00%     76.15% # Count of RAW distance in dynamic instructions for this WF
system.cpu2.CUs0.wavefronts00.vec_raw_distance::16         5727      3.10%     79.25% # Count of RAW distance in dynamic instructions for this WF
system.cpu2.CUs0.wavefronts00.vec_raw_distance::17          249      0.13%     79.38% # Count of RAW distance in dynamic instructions for this WF
system.cpu2.CUs0.wavefronts00.vec_raw_distance::18            0      0.00%     79.38% # Count of RAW distance in dynamic instructions for this WF
system.cpu2.CUs0.wavefronts00.vec_raw_distance::19          249      0.13%     79.52% # Count of RAW distance in dynamic instructions for this WF
system.cpu2.CUs0.wavefronts00.vec_raw_distance::20          748      0.40%     79.92% # Count of RAW distance in dynamic instructions for this WF
system.cpu2.CUs0.wavefronts00.vec_raw_distance::overflows        37107     20.08%    100.00% # Count of RAW distance in dynamic instructions for this WF
system.cpu2.CUs0.wavefronts00.vec_raw_distance::min_value            1                       # Count of RAW distance in dynamic instructions for this WF
system.cpu2.CUs0.wavefronts00.vec_raw_distance::max_value       175333                       # Count of RAW distance in dynamic instructions for this WF
system.cpu2.CUs0.wavefronts00.vec_raw_distance::total       184828                       # Count of RAW distance in dynamic instructions for this WF
system.cpu2.CUs0.wavefronts00.vec_reads_per_write::samples       128029                       # Count of Vector reads per write for this WF
system.cpu2.CUs0.wavefronts00.vec_reads_per_write::mean     1.443642                       # Count of Vector reads per write for this WF
system.cpu2.CUs0.wavefronts00.vec_reads_per_write::stdev     0.863323                       # Count of Vector reads per write for this WF
system.cpu2.CUs0.wavefronts00.vec_reads_per_write::underflows            0      0.00%      0.00% # Count of Vector reads per write for this WF
system.cpu2.CUs0.wavefronts00.vec_reads_per_write::0         1245      0.97%      0.97% # Count of Vector reads per write for this WF
system.cpu2.CUs0.wavefronts00.vec_reads_per_write::1        79710     62.26%     63.23% # Count of Vector reads per write for this WF
system.cpu2.CUs0.wavefronts00.vec_reads_per_write::2        43583     34.04%     97.27% # Count of Vector reads per write for this WF
system.cpu2.CUs0.wavefronts00.vec_reads_per_write::3          749      0.59%     97.86% # Count of Vector reads per write for this WF
system.cpu2.CUs0.wavefronts00.vec_reads_per_write::4          997      0.78%     98.64% # Count of Vector reads per write for this WF
system.cpu2.CUs0.wavefronts00.vec_reads_per_write::overflows         1745      1.36%    100.00% # Count of Vector reads per write for this WF
system.cpu2.CUs0.wavefronts00.vec_reads_per_write::min_value            0                       # Count of Vector reads per write for this WF
system.cpu2.CUs0.wavefronts00.vec_reads_per_write::max_value            9                       # Count of Vector reads per write for this WF
system.cpu2.CUs0.wavefronts00.vec_reads_per_write::total       128029                       # Count of Vector reads per write for this WF
system.cpu2.CUs0.wavefronts01.num_instr_executed            0                       # number of instructions executed by this WF slot
system.cpu2.CUs0.wavefronts01.sch_cycles            0                       # number of cycles spent in schedule stage
system.cpu2.CUs0.wavefronts01.sch_stalls            0                       # number of cycles WF is stalled in SCH stage
system.cpu2.CUs0.wavefronts01.sch_rf_access_stalls            0                       # number of cycles wave selected in SCH but RF denied adding instruction
system.cpu2.CUs0.wavefronts01.sch_resource_stalls            0                       # number of cycles stalled in sch by resource not available
system.cpu2.CUs0.wavefronts01.sch_opd_nrdy_stalls            0                       # number of cycles stalled in sch waiting for RF reads to complete
system.cpu2.CUs0.wavefronts01.sch_lds_arb_stalls            0                       # number of cycles wave stalled due to LDS-VRF arbitration
system.cpu2.CUs0.wavefronts01.timesBlockedDueWAXDependencies            0                       # number of times the wf's instructions are blocked due to WAW or WAR dependencies
system.cpu2.CUs0.wavefronts01.timesBlockedDueRAWDependencies            0                       # number of times the wf's instructions are blocked due to RAW dependencies
system.cpu2.CUs0.wavefronts01.vec_raw_distance::samples            0                       # Count of RAW distance in dynamic instructions for this WF
system.cpu2.CUs0.wavefronts01.vec_raw_distance::mean          nan                       # Count of RAW distance in dynamic instructions for this WF
system.cpu2.CUs0.wavefronts01.vec_raw_distance::stdev          nan                       # Count of RAW distance in dynamic instructions for this WF
system.cpu2.CUs0.wavefronts01.vec_raw_distance::underflows            0                       # Count of RAW distance in dynamic instructions for this WF
system.cpu2.CUs0.wavefronts01.vec_raw_distance::0            0                       # Count of RAW distance in dynamic instructions for this WF
system.cpu2.CUs0.wavefronts01.vec_raw_distance::1            0                       # Count of RAW distance in dynamic instructions for this WF
system.cpu2.CUs0.wavefronts01.vec_raw_distance::2            0                       # Count of RAW distance in dynamic instructions for this WF
system.cpu2.CUs0.wavefronts01.vec_raw_distance::3            0                       # Count of RAW distance in dynamic instructions for this WF
[...]
system.ruby.CorePair_Controller.PrbInvData        11305      0.00%      0.00%
system.ruby.CorePair_Controller.PrbShrData         6407      0.00%      0.00%
system.ruby.CorePair_Controller.I.C0_Load_L1miss        75972      0.00%      0.00%
system.ruby.CorePair_Controller.I.C1_Load_L1miss          293      0.00%      0.00%
system.ruby.CorePair_Controller.I.Ifetch0_L1miss        11540      0.00%      0.00%
system.ruby.CorePair_Controller.I.Ifetch1_L1miss          264      0.00%      0.00%
system.ruby.CorePair_Controller.I.C0_Store_L1miss       211541      0.00%      0.00%
system.ruby.CorePair_Controller.I.C1_Store_L1miss           85      0.00%      0.00%
system.ruby.CorePair_Controller.I.PrbInvData        10507      0.00%      0.00%
system.ruby.CorePair_Controller.I.PrbShrData           33      0.00%      0.00%
system.ruby.CorePair_Controller.S.C0_Load_L1miss            8      0.00%      0.00%
system.ruby.CorePair_Controller.S.C0_Load_L1hit          255      0.00%      0.00%
system.ruby.CorePair_Controller.S.Ifetch0_L1hit     86496000      0.00%      0.00%
system.ruby.CorePair_Controller.S.Ifetch1_L1hit    151159087      0.00%      0.00%
system.ruby.CorePair_Controller.S.Ifetch0_L1miss       356574      0.00%      0.00%
system.ruby.CorePair_Controller.S.Ifetch1_L1miss          732      0.00%      0.00%
system.ruby.CorePair_Controller.S.C0_Store_L1hit            1      0.00%      0.00%
system.ruby.CorePair_Controller.S.L1I_Repl       366296      0.00%      0.00%
system.ruby.CorePair_Controller.S.L1D0_Repl           24      0.00%      0.00%
system.ruby.CorePair_Controller.S.L2_Repl         8718      0.00%      0.00%
system.ruby.CorePair_Controller.S.PrbInvData          747      0.00%      0.00%
system.ruby.CorePair_Controller.S.PrbShrData          747      0.00%      0.00%
system.ruby.CorePair_Controller.E0.C0_Load_L1miss      2275801      0.00%      0.00%
system.ruby.CorePair_Controller.E0.C0_Load_L1hit      2023155      0.00%      0.00%
system.ruby.CorePair_Controller.E0.C1_Load_L1miss          265      0.00%      0.00%
system.ruby.CorePair_Controller.E0.Ifetch0_L1miss           15      0.00%      0.00%
system.ruby.CorePair_Controller.E0.C0_Store_L1miss          641      0.00%      0.00%
system.ruby.CorePair_Controller.E0.C0_Store_L1hit        13764      0.00%      0.00%
system.ruby.CorePair_Controller.E0.C1_Store_L1miss            1      0.00%      0.00%
system.ruby.CorePair_Controller.E0.L1D0_Repl      2336588      0.00%      0.00%
system.ruby.CorePair_Controller.E0.L2_Repl        57482      0.00%      0.00%
system.ruby.CorePair_Controller.E0.PrbInvData            2      0.00%      0.00%
system.ruby.CorePair_Controller.E0.PrbShrData          764      0.00%      0.00%
system.ruby.CorePair_Controller.E1.C0_Load_L1miss           55      0.00%      0.00%
system.ruby.CorePair_Controller.E1.C1_Load_L1miss            2      0.00%      0.00%
system.ruby.CorePair_Controller.E1.C1_Load_L1hit     21066054      0.00%      0.00%
system.ruby.CorePair_Controller.E1.C0_Store_L1miss            5      0.00%      0.00%
system.ruby.CorePair_Controller.E1.C1_Store_L1hit           33      0.00%      0.00%
system.ruby.CorePair_Controller.E1.L1D1_Repl            8      0.00%      0.00%
system.ruby.CorePair_Controller.E1.L2_Repl          170      0.00%      0.00%
system.ruby.CorePair_Controller.Es.C0_Load_L1miss         2156      0.00%      0.00%
system.ruby.CorePair_Controller.Es.C0_Load_L1hit       125311      0.00%      0.00%
system.ruby.CorePair_Controller.Es.C1_Load_L1miss            3      0.00%      0.00%
system.ruby.CorePair_Controller.Es.C1_Load_L1hit      2308372      0.00%      0.00%
system.ruby.CorePair_Controller.Es.C0_Store_L1hit           14      0.00%      0.00%
system.ruby.CorePair_Controller.Es.C1_Store_L1hit            6      0.00%      0.00%
system.ruby.CorePair_Controller.Es.L1D0_Repl         2305      0.00%      0.00%
system.ruby.CorePair_Controller.Es.L1D1_Repl            8      0.00%      0.00%
system.ruby.CorePair_Controller.Es.L2_Repl          161      0.00%      0.00%
system.ruby.CorePair_Controller.O.C0_Load_L1miss            8      0.00%      0.00%
system.ruby.CorePair_Controller.O.C0_Load_L1hit         3020      0.00%      0.00%
system.ruby.CorePair_Controller.O.C0_Store_L1hit         1500      0.00%      0.00%
system.ruby.CorePair_Controller.O.L1D0_Repl         1536      0.00%      0.00%
system.ruby.CorePair_Controller.O.L2_Repl         1065      0.00%      0.00%
system.ruby.CorePair_Controller.O.PrbInvData            1      0.00%      0.00%
system.ruby.CorePair_Controller.O.PrbShrData         1496      0.00%      0.00%
system.ruby.CorePair_Controller.Ms.C0_Load_L1miss           73      0.00%      0.00%
system.ruby.CorePair_Controller.Ms.C0_Load_L1hit        23070      0.00%      0.00%
system.ruby.CorePair_Controller.Ms.C1_Load_L1hit      1064173      0.00%      0.00%
system.ruby.CorePair_Controller.Ms.C0_Store_L1hit           35      0.00%      0.00%
system.ruby.CorePair_Controller.Ms.C1_Store_L1hit           30      0.00%      0.00%
system.ruby.CorePair_Controller.Ms.L1D0_Repl           99      0.00%      0.00%
system.ruby.CorePair_Controller.Ms.L2_Repl           30      0.00%      0.00%
system.ruby.CorePair_Controller.M0.C0_Load_L1miss      1655181      0.00%      0.00%
system.ruby.CorePair_Controller.M0.C0_Load_L1hit     13904978      0.00%      0.00%
system.ruby.CorePair_Controller.M0.C1_Load_L1miss           75      0.00%      0.00%
system.ruby.CorePair_Controller.M0.C0_Store_L1miss        12987      0.00%      0.00%
system.ruby.CorePair_Controller.M0.C0_Store_L1hit      9369666      0.00%      0.00%
system.ruby.CorePair_Controller.M0.C1_Store_L1miss           12      0.00%      0.00%
system.ruby.CorePair_Controller.M0.L1D0_Repl      1892065      0.00%      0.00%
system.ruby.CorePair_Controller.M0.L2_Repl       198397      0.00%      0.00%
system.ruby.CorePair_Controller.M0.PrbInvData           48      0.00%      0.00%
system.ruby.CorePair_Controller.M0.PrbShrData         3367      0.00%      0.00%
system.ruby.CorePair_Controller.M1.C0_Load_L1miss           31      0.00%      0.00%
system.ruby.CorePair_Controller.M1.C1_Load_L1hit     24455839      0.00%      0.00%
system.ruby.CorePair_Controller.M1.C0_Store_L1miss            7      0.00%      0.00%
system.ruby.CorePair_Controller.M1.C1_Store_L1hit      2985872      0.00%      0.00%
system.ruby.CorePair_Controller.M1.L1D1_Repl            2      0.00%      0.00%
system.ruby.CorePair_Controller.M1.L2_Repl          106      0.00%      0.00%
system.ruby.CorePair_Controller.I_M0.NB_AckM       211541      0.00%      0.00%
system.ruby.CorePair_Controller.I_M1.NB_AckM           85      0.00%      0.00%
system.ruby.CorePair_Controller.I_E0S.NB_AckE        75972      0.00%      0.00%
system.ruby.CorePair_Controller.I_E1S.NB_AckE          293      0.00%      0.00%
system.ruby.CorePair_Controller.ES_I.C1_Load_L1miss          588      0.00%      0.00%
system.ruby.CorePair_Controller.ES_I.Ifetch1_L1miss          321      0.00%      0.00%
system.ruby.CorePair_Controller.ES_I.NB_AckWB        66531      0.00%      0.00%
system.ruby.CorePair_Controller.MO_I.C1_Load_L1miss          191      0.00%      0.00%
system.ruby.CorePair_Controller.MO_I.NB_AckWB       199598      0.00%      0.00%
system.ruby.CorePair_Controller.S_F0.L2_to_L1D0            8      0.00%      0.00%
system.ruby.CorePair_Controller.O_F0.L2_to_L1D0            8      0.00%      0.00%
system.ruby.CorePair_Controller.Si_F0.L2_to_L1I       356574      0.00%      0.00%
system.ruby.CorePair_Controller.Si_F1.L2_to_L1I          732      0.00%      0.00%
system.ruby.CorePair_Controller.S_M0.NB_AckM            1      0.00%      0.00%
system.ruby.CorePair_Controller.O_M0.NB_AckM         1500      0.00%      0.00%
system.ruby.CorePair_Controller.S0.NB_AckS        11555      0.00%      0.00%
system.ruby.CorePair_Controller.S1.NB_AckS          264      0.00%      0.00%
system.ruby.CorePair_Controller.Es_F0.L2_to_L1D0         2156      0.00%      0.00%
system.ruby.CorePair_Controller.Es_F1.L2_to_L1D1            3      0.00%      0.00%
system.ruby.CorePair_Controller.E0_F.L2_to_L1D0      2275801      0.00%      0.00%
system.ruby.CorePair_Controller.E1_F.L2_to_L1D1            2      0.00%      0.00%
system.ruby.CorePair_Controller.E0_Es.L2_to_L1D1          265      0.00%      0.00%
system.ruby.CorePair_Controller.E1_Es.C1_Load_L1hit            1      0.00%      0.00%
system.ruby.CorePair_Controller.E1_Es.L2_to_L1D0           55      0.00%      0.00%
system.ruby.CorePair_Controller.Ms_F0.L2_to_L1D0           73      0.00%      0.00%
system.ruby.CorePair_Controller.M0_F.L2_to_L1D0      1655181      0.00%      0.00%
system.ruby.CorePair_Controller.M0_Ms.C0_Load_L1hit            1      0.00%      0.00%
system.ruby.CorePair_Controller.M0_Ms.L2_to_L1D1           75      0.00%      0.00%
system.ruby.CorePair_Controller.M1_Ms.L2_to_L1D0           31      0.00%      0.00%
system.ruby.Directory_Controller.RdBlkS         11819      0.00%      0.00%
system.ruby.Directory_Controller.RdBlkM        213127      0.00%      0.00%
system.ruby.Directory_Controller.RdBlk          78182      0.00%      0.00%
system.ruby.Directory_Controller.WriteThrough        10673      0.00%      0.00%
system.ruby.Directory_Controller.VicDirty       199598      0.00%      0.00%
system.ruby.Directory_Controller.VicClean        66531      0.00%      0.00%
system.ruby.Directory_Controller.CPUData       266129      0.00%      0.00%
system.ruby.Directory_Controller.CPUPrbResp       324911      0.00%      0.00%
system.ruby.Directory_Controller.ProbeAcksComplete       318923      0.00%      0.00%
system.ruby.Directory_Controller.L3Hit          29175      0.00%      0.00%
system.ruby.Directory_Controller.MemData       288250      0.00%      0.00%
system.ruby.Directory_Controller.WBAck          10210      0.00%      0.00%
system.ruby.Directory_Controller.CoreUnblock       303127      0.00%      0.00%
system.ruby.Directory_Controller.UnblockWriteThrough         9807      0.00%      0.00%
system.ruby.Directory_Controller.DmaRead         4490      0.00%      0.00%
system.ruby.Directory_Controller.DmaWrite         1498      0.00%      0.00%
system.ruby.Directory_Controller.U.RdBlkS        11819      0.00%      0.00%
system.ruby.Directory_Controller.U.RdBlkM       213127      0.00%      0.00%
system.ruby.Directory_Controller.U.RdBlk        78182      0.00%      0.00%
system.ruby.Directory_Controller.U.WriteThrough         9807      0.00%      0.00%
system.ruby.Directory_Controller.U.VicDirty       199598      0.00%      0.00%
system.ruby.Directory_Controller.U.VicClean        66531      0.00%      0.00%
system.ruby.Directory_Controller.U.WBAck        10210      0.00%      0.00%
system.ruby.Directory_Controller.U.DmaRead         4490      0.00%      0.00%
system.ruby.Directory_Controller.U.DmaWrite         1498      0.00%      0.00%
system.ruby.Directory_Controller.BL.CPUData       266129      0.00%      0.00%
system.ruby.Directory_Controller.BDR_M.MemData           62      0.00%      0.00%
system.ruby.Directory_Controller.BS_M.MemData         7560      0.00%      0.00%
system.ruby.Directory_Controller.BM_M.WriteThrough           65      0.00%      0.00%
system.ruby.Directory_Controller.BM_M.MemData       212248      0.00%      0.00%
system.ruby.Directory_Controller.B_M.MemData        55061      0.00%      0.00%
system.ruby.Directory_Controller.BDR_PM.CPUPrbResp         4552      0.00%      0.00%
system.ruby.Directory_Controller.BDR_PM.ProbeAcksComplete           62      0.00%      0.00%
system.ruby.Directory_Controller.BDR_PM.MemData         4428      0.00%      0.00%
system.ruby.Directory_Controller.BS_PM.CPUPrbResp         7560      0.00%      0.00%
system.ruby.Directory_Controller.BS_PM.ProbeAcksComplete         7560      0.00%      0.00%
system.ruby.Directory_Controller.BS_PM.L3Hit         4257      0.00%      0.00%
system.ruby.Directory_Controller.BS_PM.MemData            2      0.00%      0.00%
system.ruby.Directory_Controller.BM_PM.WriteThrough          775      0.00%      0.00%
system.ruby.Directory_Controller.BM_PM.CPUPrbResp       212250      0.00%      0.00%
system.ruby.Directory_Controller.BM_PM.ProbeAcksComplete       212248      0.00%      0.00%
system.ruby.Directory_Controller.BM_PM.L3Hit         3315      0.00%      0.00%
system.ruby.Directory_Controller.BM_PM.MemData         7371      0.00%      0.00%
system.ruby.Directory_Controller.B_PM.CPUPrbResp        55065      0.00%      0.00%
system.ruby.Directory_Controller.B_PM.ProbeAcksComplete        55061      0.00%      0.00%
system.ruby.Directory_Controller.B_PM.L3Hit        21603      0.00%      0.00%
system.ruby.Directory_Controller.B_PM.MemData         1518      0.00%      0.00%
system.ruby.Directory_Controller.BDW_P.CPUPrbResp         2996      0.00%      0.00%
system.ruby.Directory_Controller.BDW_P.ProbeAcksComplete         1498      0.00%      0.00%
system.ruby.Directory_Controller.BDR_Pm.CPUPrbResp         4428      0.00%      0.00%
system.ruby.Directory_Controller.BDR_Pm.ProbeAcksComplete         4428      0.00%      0.00%
system.ruby.Directory_Controller.BS_Pm.CPUPrbResp         4259      0.00%      0.00%
system.ruby.Directory_Controller.BS_Pm.ProbeAcksComplete         4259      0.00%      0.00%
system.ruby.Directory_Controller.BM_Pm.WriteThrough           26      0.00%      0.00%
system.ruby.Directory_Controller.BM_Pm.CPUPrbResp        10684      0.00%      0.00%
system.ruby.Directory_Controller.BM_Pm.ProbeAcksComplete        10686      0.00%      0.00%
system.ruby.Directory_Controller.B_Pm.CPUPrbResp        23117      0.00%      0.00%
system.ruby.Directory_Controller.B_Pm.ProbeAcksComplete        23121      0.00%      0.00%
system.ruby.Directory_Controller.B.CoreUnblock       303127      0.00%      0.00%
system.ruby.Directory_Controller.B.UnblockWriteThrough         9807      0.00%      0.00%
system.ruby.SQC_Controller.Fetch         |       77716     82.97%     82.97% |       15956     17.03%    100.00%
system.ruby.SQC_Controller.Fetch::total         93672                      
system.ruby.SQC_Controller.Repl          |           0      0.00%      0.00% |         984    100.00%    100.00%
system.ruby.SQC_Controller.Repl::total            984                      
system.ruby.SQC_Controller.Data          |          31      2.03%      2.03% |        1496     97.97%    100.00%
system.ruby.SQC_Controller.Data::total           1527                      
system.ruby.SQC_Controller.I.Fetch       |          31      2.03%      2.03% |        1496     97.97%    100.00%
system.ruby.SQC_Controller.I.Fetch::total         1527                      
system.ruby.SQC_Controller.I.Data        |          31      2.03%      2.03% |        1496     97.97%    100.00%
system.ruby.SQC_Controller.I.Data::total         1527                      
system.ruby.SQC_Controller.V.Fetch       |       77685     84.31%     84.31% |       14460     15.69%    100.00%
system.ruby.SQC_Controller.V.Fetch::total        92145                      
system.ruby.SQC_Controller.V.Repl        |           0      0.00%      0.00% |         984    100.00%    100.00%
system.ruby.SQC_Controller.V.Repl::total          984                      
system.ruby.TCC_Controller.RdBlk               121300      0.00%      0.00%
system.ruby.TCC_Controller.WrVicBlk              9807      0.00%      0.00%
system.ruby.TCC_Controller.Data                  1917      0.00%      0.00%
system.ruby.TCC_Controller.L2_Repl                702      0.00%      0.00%
system.ruby.TCC_Controller.PrbInv              307199      0.00%      0.00%
system.ruby.TCC_Controller.WBAck                 9807      0.00%      0.00%
system.ruby.TCC_Controller.V.RdBlk             116379      0.00%      0.00%
system.ruby.TCC_Controller.V.WrVicBlk            9692      0.00%      0.00%
system.ruby.TCC_Controller.V.L2_Repl              702      0.00%      0.00%
system.ruby.TCC_Controller.V.PrbInv                31      0.00%      0.00%
system.ruby.TCC_Controller.V.WBAck               9692      0.00%      0.00%
system.ruby.TCC_Controller.I.RdBlk               1917      0.00%      0.00%
system.ruby.TCC_Controller.I.WrVicBlk             115      0.00%      0.00%
system.ruby.TCC_Controller.I.PrbInv            307168      0.00%      0.00%
system.ruby.TCC_Controller.I.WBAck                115      0.00%      0.00%
system.ruby.TCC_Controller.IV.RdBlk              3004      0.00%      0.00%
system.ruby.TCC_Controller.IV.Data               1917      0.00%      0.00%
system.ruby.TCP_Controller.Load          |      275395     24.52%     24.52% |      260953     23.24%     47.76% |      297307     26.47%     74.24% |      289339     25.76%    100.00%
system.ruby.TCP_Controller.Load::total        1122994                      
system.ruby.TCP_Controller.StoreThrough  |        2515     25.64%     25.64% |        2515     25.64%     51.29% |        2513     25.62%     76.91% |        2264     23.09%    100.00%
system.ruby.TCP_Controller.StoreThrough::total         9807                      
system.ruby.TCP_Controller.Evict         |      765952     25.00%     25.00% |      765952     25.00%     50.00% |      765952     25.00%     75.00% |      765952     25.00%    100.00%
system.ruby.TCP_Controller.Evict::total       3063808                      
system.ruby.TCP_Controller.TCC_Ack       |       30130     25.16%     25.16% |       29134     24.32%     49.48% |       31126     25.99%     75.47% |       29383     24.53%    100.00%
system.ruby.TCP_Controller.TCC_Ack::total       119773                      
system.ruby.TCP_Controller.TCC_AckWB     |        2515     25.64%     25.64% |        2515     25.64%     51.29% |        2513     25.62%     76.91% |        2264     23.09%    100.00%
system.ruby.TCP_Controller.TCC_AckWB::total         9807                      
system.ruby.TCP_Controller.I.Load        |       30130     25.16%     25.16% |       29134     24.32%     49.48% |       31126     25.99%     75.47% |       29383     24.53%    100.00%
system.ruby.TCP_Controller.I.Load::total       119773                      
system.ruby.TCP_Controller.I.StoreThrough |        2266     23.71%     23.71% |        2515     26.31%     50.02% |        2513     26.29%     76.31% |        2264     23.69%    100.00%
system.ruby.TCP_Controller.I.StoreThrough::total         9558                      
system.ruby.TCP_Controller.I.Evict       |      736082     25.00%     25.00% |      736829     25.03%     50.03% |      734837     24.96%     74.98% |      736579     25.02%    100.00%
system.ruby.TCP_Controller.I.Evict::total      2944327                      
system.ruby.TCP_Controller.I.TCC_Ack     |       30130     25.16%     25.16% |       29134     24.32%     49.48% |       31126     25.99%     75.47% |       29383     24.53%    100.00%
system.ruby.TCP_Controller.I.TCC_Ack::total       119773                      
system.ruby.TCP_Controller.I.TCC_AckWB   |        2515     25.64%     25.64% |        2515     25.64%     51.29% |        2513     25.62%     76.91% |        2264     23.09%    100.00%
system.ruby.TCP_Controller.I.TCC_AckWB::total         9807                      
system.ruby.TCP_Controller.V.Load        |      245265     24.45%     24.45% |      231819     23.11%     47.56% |      266181     26.53%     74.09% |      259956     25.91%    100.00%
system.ruby.TCP_Controller.V.Load::total      1003221                      
system.ruby.TCP_Controller.V.StoreThrough |         249    100.00%    100.00% |           0      0.00%    100.00% |           0      0.00%    100.00% |           0      0.00%    100.00%
system.ruby.TCP_Controller.V.StoreThrough::total          249                      
system.ruby.TCP_Controller.V.Evict       |       29870     25.00%     25.00% |       29123     24.37%     49.37% |       31115     26.04%     75.42% |       29373     24.58%    100.00%
system.ruby.TCP_Controller.V.Evict::total       119481                      

---------- End Simulation Statistics   ----------
